<?xml version="1.0" encoding="UTF-8"?>

<!-- generated on 2025-04-24 21:25:19.235498 by randomTrips.py UNKNOWN
<configuration>
    <net-file value="data/net/san_lorenzo.net.xml"/>
    <weights-prefix value="data/net/outer_edges"/>
    <output-trip-file value="output/runs/trips_truck_0.rou.xml"/>
    <prefix value="truck_0"/>
    <trip-attributes value="color=&quot;red&quot; length=&quot;16.5&quot; accel=&quot;1.0&quot;"/>
    <vehicle-class value="truck"/>
    <edge-param value="traveltime"/>
    <speed-exponent value="0.5"/>
    <min-distance value="50.0"/>
    <validate value="True"/>
    <end value="3000.0"/>
    <period value="1.7"/>
    <random-depart value="True"/>
</configuration>
-->

<!-- generated on 2025-04-24 21:25:19 by Eclipse SUMO duarouter Version 1.18.0
<configuration xmlns:xsi="http://www.w3.org/2001/XMLSchema-instance" xsi:noNamespaceSchemaLocation="http://sumo.dlr.de/xsd/duarouterConfiguration.xsd">

    <input>
        <net-file value="data/net/san_lorenzo.net.xml"/>
        <route-files value="output/runs/trips_truck_0.rou.xml"/>
    </input>

    <output>
        <output-file value="routes.rou.xml"/>
        <alternatives-output value="NUL"/>
    </output>

    <time>
        <begin value="0.0"/>
        <end value="3000.0"/>
    </time>

    <report>
        <no-warnings value="true"/>
        <ignore-errors value="true"/>
        <no-step-log value="true"/>
    </report>

</configuration>
-->

<routes xmlns:xsi="http://www.w3.org/2001/XMLSchema-instance" xsi:noNamespaceSchemaLocation="http://sumo.dlr.de/xsd/routes_file.xsd">
    <vType id="truck_0_truck" length="16.50" vClass="truck" color="red" accel="1.0"/>
    <vehicle id="truck_00" type="truck_0_truck" depart="2.10">
        <route edges="802455775#0 802455775#1 -300593294 -164798030 -981852375 70912182 700954730 8085083 164798664 299677233#0 299677233#1 71403306#0 71403306#1 71403306#2 447703687 866820587 866820588 447703692 467042663"/>
    </vehicle>
    <vehicle id="truck_02" type="truck_0_truck" depart="6.30">
        <route edges="467209749"/>
    </vehicle>
    <vehicle id="truck_07" type="truck_0_truck" depart="14.20">
        <route edges="-802455775#0"/>
    </vehicle>
    <vehicle id="truck_08" type="truck_0_truck" depart="18.20">
        <route edges="299619486#2 362619311 866820586 866820585 -976749368"/>
    </vehicle>
    <vehicle id="truck_09" type="truck_0_truck" depart="21.80">
        <route edges="790589568#1 790589568#2 790589568#3 1055432741 802057656 466952696 466952697 48162002 299677233#0 299677233#1 71403306#0 71403306#1 71403306#2 447703687 866820587 866820588 447703692 467042663"/>
    </vehicle>
    <vehicle id="truck_012" type="truck_0_truck" depart="26.10">
        <route edges="790589568#1"/>
    </vehicle>
    <vehicle id="truck_014" type="truck_0_truck" depart="31.90">
        <route edges="467209749 48162005 48162006#0 416234260 300592593 416234258 71403306#0 71403306#1 71403306#2 447703687 866820587 866820588 447703692 467042663"/>
    </vehicle>
    <vehicle id="truck_017" type="truck_0_truck" depart="38.60">
        <route edges="976749368 466974721 71403306#2 447703687 866820587 866820588 447703692 467042663"/>
    </vehicle>
    <vehicle id="truck_022" type="truck_0_truck" depart="58.00">
        <route edges="299619486#2"/>
    </vehicle>
    <vehicle id="truck_023" type="truck_0_truck" depart="60.40">
        <route edges="467209749 48162005 48162006#0 416234260 300592593 416234258 71403306#0 71403306#1 71403306#2 976752207 467004337 -976749368"/>
    </vehicle>
    <vehicle id="truck_027" type="truck_0_truck" depart="64.90">
        <route edges="802455775#0"/>
    </vehicle>
    <vehicle id="truck_033" type="truck_0_truck" depart="76.10">
        <route edges="976749368 976752206 447703689#0 447703689#1 467016769 467005944 299677237 1033965905 130627111#0 130627111#1 164798662#0 130539910#0 130539910#1 30033175 466952699 466952698 164804488 446855128"/>
    </vehicle>
    <vehicle id="truck_039" type="truck_0_truck" depart="87.90">
        <route edges="790589568#1 790589568#2 790589568#3 1055432741 802057656 466952696 466952697 48162002 299677233#0 299677233#1 71403306#0 71403306#1 71403306#2 976752207 467004337 -976749368"/>
    </vehicle>
    <vehicle id="truck_042" type="truck_0_truck" depart="94.60">
        <route edges="299619486#2"/>
    </vehicle>
    <vehicle id="truck_045" type="truck_0_truck" depart="102.90">
        <route edges="299619486#2 362619311 866820586 866820585 976752206 447703689#0 447703689#1 467016769 467005944 299677237 1033965905 130627111#0 130627111#1 164798662#0 164798662#1 460105271 981852376 29045179 700954729 1189158487 976107160#0 976107160#1 976107159"/>
    </vehicle>
    <vehicle id="truck_046" type="truck_0_truck" depart="105.80">
        <route edges="976749368 976752206 447703689#0 447703689#1 467016769 467005944 299677237 48162003 299677230 300591205 -48162005 48161982#0"/>
    </vehicle>
    <vehicle id="truck_048" type="truck_0_truck" depart="107.60">
        <route edges="802455775#0 802455775#1 -300593294 -164798030 -981852375 70912182 700954729 1189158487 976107160#0 976107160#1 976107159"/>
    </vehicle>
    <vehicle id="truck_049" type="truck_0_truck" depart="107.80">
        <route edges="976749368 976752206 447703689#0 447703689#1 467016769 467005944 299677237 1033965905 130627111#0 130627111#1 164798662#0 164798662#1 460105271 981852376 29045179 700954729 1189158487 976107160#0 976107160#1 976107159"/>
    </vehicle>
    <vehicle id="truck_053" type="truck_0_truck" depart="111.10">
        <route edges="790589568#1 790589568#2 790589568#3 1055432741 802057656 466952696 466952697 48162002 299677233#0 299677233#1 71403306#0 71403306#1 71403306#2 447703687 866820587 866820588 447703692 467042663"/>
    </vehicle>
    <vehicle id="truck_055" type="truck_0_truck" depart="121.90">
        <route edges="446855128"/>
    </vehicle>
    <vehicle id="truck_056" type="truck_0_truck" depart="122.10">
        <route edges="790589568#1 790589568#2 790589568#3 1055432741 802057656 466952696 466952697 48162002 299677231 164798662#0 164798662#1 460105271 981852376 29045179 700954729 1189158487 976107160#0 976107160#1 976107159"/>
    </vehicle>
    <vehicle id="truck_057" type="truck_0_truck" depart="127.30">
        <route edges="-446855128 30033180 1044768250 1044768246 1044768249 802057656 466952696 466952697 48162002 299677233#0 299677233#1 71403306#0 71403306#1 71403306#2 447703687 866820587 866820588 447703692 467042663"/>
    </vehicle>
    <vehicle id="truck_062" type="truck_0_truck" depart="129.50">
        <route edges="790589568#1 790589568#2 790589568#3 1055432741 802057656 466952696 466952697 48162002 299677231 164798662#0 130539910#0 130539910#1 30033175 466952699 466952698 164804488 446855128"/>
    </vehicle>
    <vehicle id="truck_064" type="truck_0_truck" depart="132.60">
        <route edges="-446855128 30033180 1044768250 1044768246 1044768249 802057656 466952696 466952697 48162002 299677233#0 299677233#1 71403306#0 71403306#1 71403306#2 447703687 866820587 866820588 447703692 467042663"/>
    </vehicle>
    <vehicle id="truck_068" type="truck_0_truck" depart="148.20">
        <route edges="467209749"/>
    </vehicle>
    <vehicle id="truck_073" type="truck_0_truck" depart="159.70">
        <route edges="802455775#0 802455775#1 -300593294 -164798030 -981852375 70912182 700954730 8085083 130539910#1 30033175 466952699 466952698 164804488 446855128"/>
    </vehicle>
    <vehicle id="truck_078" type="truck_0_truck" depart="168.40">
        <route edges="299619486#2 362619311 866820586 866820585 976752206 447703689#0 447703689#1 467016769 467005944 299677237 48162003 299677230 300591205 -48162005 48161982#0"/>
    </vehicle>
    <vehicle id="truck_082" type="truck_0_truck" depart="173.90">
        <route edges="790589568#1"/>
    </vehicle>
    <vehicle id="truck_083" type="truck_0_truck" depart="178.40">
        <route edges="-446855128 30033180 1044768250 1044768246 1044768249 802057656 466952696 466952697 48162002 299677233#0 299677233#1 71403306#0 71403306#1 71403306#2 447703687 866820587 866820588 447703692 467042663"/>
    </vehicle>
    <vehicle id="truck_087" type="truck_0_truck" depart="185.00">
        <route edges="976749368 976752206 447703689#0 447703689#1 467016769 467005944 299677237 1033965905 130627111#0 130627111#1 164798662#0 130539910#0 130539910#1 30033175 466952699 466952698 164804488 446855128"/>
    </vehicle>
    <vehicle id="truck_095" type="truck_0_truck" depart="205.40">
        <route edges="-446855128 30033180 1044768250 1044768246 1044768249 802057656 466952696 466952697 48162002 299677233#0 299677233#1 164799269 299677237 48162003 299677230 300591205 -48162005 48161982#0"/>
    </vehicle>
    <vehicle id="truck_0104" type="truck_0_truck" depart="223.20">
        <route edges="467209749"/>
    </vehicle>
    <vehicle id="truck_0105" type="truck_0_truck" depart="226.60">
        <route edges="802455775#0 802455775#1 -300593294 -164798030 -981852375 70912182 700954730 8085083 164798664 299677233#0 299677233#1 164799269 299677237 48162003 299677230 300591205 -48162005 48161982#0"/>
    </vehicle>
    <vehicle id="truck_0106" type="truck_0_truck" depart="229.60">
        <route edges="802455775#0 802455775#1 -300593294 -164798030 -981852375 70912182 700954730 8085083 164798664 299677233#0 299677233#1 164799269 299677237 48162003 299677230 300591205 -48162005 48161982#0"/>
    </vehicle>
    <vehicle id="truck_0107" type="truck_0_truck" depart="229.70">
        <route edges="299619486#2 362619311 866820586 866820585 466974721 71403306#2 447703687 866820587 866820588 447703692 467042663"/>
    </vehicle>
    <vehicle id="truck_0110" type="truck_0_truck" depart="233.00">
        <route edges="976749368"/>
    </vehicle>
    <vehicle id="truck_0114" type="truck_0_truck" depart="245.90">
        <route edges="976749368"/>
    </vehicle>
    <vehicle id="truck_0117" type="truck_0_truck" depart="249.00">
        <route edges="790589568#1"/>
    </vehicle>
    <vehicle id="truck_0119" type="truck_0_truck" depart="256.80">
        <route edges="-446855128"/>
    </vehicle>
    <vehicle id="truck_0122" type="truck_0_truck" depart="259.80">
        <route edges="467209749 48162005 48162006#0 416234260 300592593 130627111#1 164798662#0 130539910#0 130539910#1 30033175 466952699 466952698 164804488 446855128"/>
    </vehicle>
    <vehicle id="truck_0125" type="truck_0_truck" depart="267.70">
        <route edges="467209749 48162005 48162006#0 416234260 300592593 416234258 71403306#0 71403306#1 71403306#2 976752207 467004337 -976749368"/>
    </vehicle>
    <vehicle id="truck_0126" type="truck_0_truck" depart="269.20">
        <route edges="802455775#0 802455775#1 -300593294 -164798030 -981852375 70912182 700954730 8085083 164798664 299677233#0 299677233#1 71403306#0 71403306#1 71403306#2 447703687 866820587 866820588 447703692 467042663"/>
    </vehicle>
    <vehicle id="truck_0128" type="truck_0_truck" depart="276.40">
        <route edges="802455775#0 802455775#1 -300593294 -164798030 -981852375 70912182 700954730 8085083 164798664 299677233#0 299677233#1 164799269 299677237 48162003 299677230 300591205 -48162005 48161982#0"/>
    </vehicle>
    <vehicle id="truck_0130" type="truck_0_truck" depart="278.20">
        <route edges="790589568#1 790589568#2 790589568#3 1055432741 802057656 466952696 466952697 48162002 299677231 164798662#0 164798662#1 460105271 981852376 29045179 700954729 1189158487 976107160#0 976107160#1 976107159"/>
    </vehicle>
    <vehicle id="truck_0132" type="truck_0_truck" depart="280.90">
        <route edges="446855128"/>
    </vehicle>
    <vehicle id="truck_0134" type="truck_0_truck" depart="282.40">
        <route edges="790589568#1"/>
    </vehicle>
    <vehicle id="truck_0136" type="truck_0_truck" depart="283.70">
        <route edges="790589568#1 790589568#2 790589568#3 1055432741 802057656 466952696 466952697 48162002 299677233#0 299677233#1 71403306#0 71403306#1 71403306#2 976752207 467004337 -976749368"/>
    </vehicle>
    <vehicle id="truck_0137" type="truck_0_truck" depart="284.90">
        <route edges="976749368 466974721 71403306#2 447703687 866820587 866820588 447703692 467042663"/>
    </vehicle>
    <vehicle id="truck_0139" type="truck_0_truck" depart="290.30">
        <route edges="-802455775#0"/>
    </vehicle>
    <vehicle id="truck_0145" type="truck_0_truck" depart="297.60">
        <route edges="299619486#2 362619311 866820586 866820585 466974721 71403306#2 447703687 866820587 866820588 447703692 467042663"/>
    </vehicle>
    <vehicle id="truck_0150" type="truck_0_truck" depart="300.40">
        <route edges="-446855128 30033180 1044768250 1044768246 1044768249 802057656 466952696 466952697 48162002 299677231 164798662#0 164798662#1 460105271 981852376 29045179 700954729 1189158487 976107160#0 976107160#1 976107159"/>
    </vehicle>
    <vehicle id="truck_0153" type="truck_0_truck" depart="302.10">
        <route edges="976749368 976752206 447703689#0 447703689#1 467016769 467005944 299677237 1033965905 130627111#0 130627111#1 164798662#0 164798662#1 460105271 981852376 29045179 700954729 1189158487 976107160#0 976107160#1 976107159"/>
    </vehicle>
    <vehicle id="truck_0154" type="truck_0_truck" depart="302.30">
        <route edges="467209749 48162005 48162006#0 416234260 300592593 130627111#1 164798662#0 164798662#1 460105271 981852376 29045179 700954729 1189158487 976107160#0 976107160#1 976107159"/>
    </vehicle>
    <vehicle id="truck_0155" type="truck_0_truck" depart="302.30">
        <route edges="790589568#1 790589568#2 790589568#3 1055432741 802057656 466952696 466952697 48162002 299677231 164798662#0 130539910#0 130539910#1 30033175 466952699 466952698 164804488 446855128"/>
    </vehicle>
    <vehicle id="truck_0156" type="truck_0_truck" depart="303.10">
        <route edges="299619486#2 362619311 866820586 866820585 976752206 447703689#0 447703689#1 467016769 467005944 299677237 1033965905 130627111#0 130627111#1 164798662#0 130539910#0 130539910#1 30033175 466952699 466952698 164804488 446855128"/>
    </vehicle>
    <vehicle id="truck_0159" type="truck_0_truck" depart="307.30">
        <route edges="467209749 48162005 48162006#0 416234260 300592593 130627111#1 164798662#0 164798662#1 460105271 981852376 29045179 700954729 1189158487 976107160#0 976107160#1 976107159"/>
    </vehicle>
    <vehicle id="truck_0160" type="truck_0_truck" depart="307.70">
        <route edges="976749368"/>
    </vehicle>
    <vehicle id="truck_0161" type="truck_0_truck" depart="308.20">
        <route edges="-446855128 30033180 1044768250 1044768246 1044768249 802057656 466952696 466952697 48162002 299677233#0 299677233#1 71403306#0 71403306#1 71403306#2 447703687 866820587 866820588 447703692 467042663"/>
    </vehicle>
    <vehicle id="truck_0164" type="truck_0_truck" depart="314.00">
        <route edges="-446855128 30033180 1044768250 1044768246 1044768249 802057656 466952696 466952697 48162002 299677233#0 299677233#1 71403306#0 71403306#1 71403306#2 976752207 467004337 -976749368"/>
    </vehicle>
    <vehicle id="truck_0166" type="truck_0_truck" depart="318.40">
        <route edges="467209749 48162005 48162006#0 416234260 300592593 416234258 71403306#0 71403306#1 71403306#2 447703687 866820587 866820588 447703692 467042663"/>
    </vehicle>
    <vehicle id="truck_0167" type="truck_0_truck" depart="319.00">
        <route edges="467209749 48162005 48162006#0 416234260 300592593 416234258 71403306#0 71403306#1 71403306#2 447703687 866820587 866820588 447703692 467042663"/>
    </vehicle>
    <vehicle id="truck_0168" type="truck_0_truck" depart="321.70">
        <route edges="802455775#0 802455775#1 -300593294 -164798030 -981852375 70912182 700954730 8085083 164798664 299677233#0 299677233#1 71403306#0 71403306#1 71403306#2 976752207 467004337 -976749368"/>
    </vehicle>
    <vehicle id="truck_0173" type="truck_0_truck" depart="323.60">
        <route edges="976749368"/>
    </vehicle>
    <vehicle id="truck_0174" type="truck_0_truck" depart="323.60">
        <route edges="-446855128 30033180 1044768250 1044768246 1044768249 802057656 466952696 466952697 48162002 299677233#0 299677233#1 164799269 299677237 48162003 299677230 300591205 -48162005 48161982#0"/>
    </vehicle>
    <vehicle id="truck_0176" type="truck_0_truck" depart="328.20">
        <route edges="-446855128 30033180 1044768250 1044768246 1044768249 802057656 466952696 466952697 48162002 299677233#0 299677233#1 71403306#0 71403306#1 71403306#2 447703687 866820587 866820588 447703692 467042663"/>
    </vehicle>
    <vehicle id="truck_0180" type="truck_0_truck" depart="333.20">
        <route edges="976749368 976752206 447703689#0 447703689#1 467016769 467005944 299677237 1033965905 130627111#0 130627111#1 164798662#0 164798662#1 460105271 981852376 29045179 700954729 1189158487 976107160#0 976107160#1 976107159"/>
    </vehicle>
    <vehicle id="truck_0188" type="truck_0_truck" depart="356.60">
        <route edges="790589568#1"/>
    </vehicle>
    <vehicle id="truck_0189" type="truck_0_truck" depart="357.90">
        <route edges="299619486#2"/>
    </vehicle>
    <vehicle id="truck_0190" type="truck_0_truck" depart="366.70">
        <route edges="-446855128 30033180 1044768250 1044768246 1044768249 802057656 466952696 466952697 48162002 299677233#0 299677233#1 71403306#0 71403306#1 71403306#2 976752207 467004337 -976749368"/>
    </vehicle>
    <vehicle id="truck_0193" type="truck_0_truck" depart="372.40">
        <route edges="446855128"/>
    </vehicle>
    <vehicle id="truck_0208" type="truck_0_truck" depart="390.20">
        <route edges="790589568#1 790589568#2 790589568#3 1055432741 802057656 466952696 466952697 48162002 299677233#0 299677233#1 164799269 299677237 48162003 299677230 300591205 -48162005 48161982#0"/>
    </vehicle>
    <vehicle id="truck_0211" type="truck_0_truck" depart="396.10">
        <route edges="-446855128 30033180 1044768250 1044768246 1044768249 802057656 466952696 466952697 48162002 299677231 164798662#0 164798662#1 460105271 981852376 29045179 700954729 1189158487 976107160#0 976107160#1 976107159"/>
    </vehicle>
    <vehicle id="truck_0217" type="truck_0_truck" depart="401.90">
        <route edges="790589568#1 790589568#2 790589568#3 1055432741 802057656 466952696 466952697 48162002 299677233#0 299677233#1 71403306#0 71403306#1 71403306#2 976752207 467004337 -976749368"/>
    </vehicle>
    <vehicle id="truck_0219" type="truck_0_truck" depart="403.60">
        <route edges="299619486#2 362619311 866820586 866820585 976752206 447703689#0 447703689#1 467016769 467005944 299677237 1033965905 130627111#0 130627111#1 164798662#0 164798662#1 460105271 981852376 29045179 700954729 1189158487 976107160#0 976107160#1 976107159"/>
    </vehicle>
    <vehicle id="truck_0220" type="truck_0_truck" depart="406.60">
        <route edges="-446855128 30033180 1044768250 1044768246 1044768249 802057656 466952696 466952697 48162002 299677233#0 299677233#1 164799269 299677237 48162003 299677230 300591205 -48162005 48161982#0"/>
    </vehicle>
    <vehicle id="truck_0225" type="truck_0_truck" depart="411.90">
        <route edges="976749368 466974721 71403306#2 447703687 866820587 866820588 447703692 467042663"/>
    </vehicle>
    <vehicle id="truck_0229" type="truck_0_truck" depart="420.10">
        <route edges="467209749 48162005 48162006#0 416234260 300592593 416234258 71403306#0 71403306#1 71403306#2 447703687 866820587 866820588 447703692 467042663"/>
    </vehicle>
    <vehicle id="truck_0230" type="truck_0_truck" depart="423.90">
        <route edges="976749368 466974721 71403306#2 447703687 866820587 866820588 447703692 467042663"/>
    </vehicle>
    <vehicle id="truck_0232" type="truck_0_truck" depart="428.00">
        <route edges="299619486#2 362619311 866820586 866820585 -976749368"/>
    </vehicle>
    <vehicle id="truck_0236" type="truck_0_truck" depart="436.70">
        <route edges="976749368"/>
    </vehicle>
    <vehicle id="truck_0237" type="truck_0_truck" depart="438.20">
        <route edges="-446855128 30033180 1044768250 1044768246 1044768249 802057656 466952696 466952697 48162002 299677233#0 299677233#1 164799269 299677237 48162003 299677230 300591205 -48162005 48161982#0"/>
    </vehicle>
    <vehicle id="truck_0240" type="truck_0_truck" depart="439.40">
        <route edges="802455775#0"/>
    </vehicle>
    <vehicle id="truck_0242" type="truck_0_truck" depart="442.00">
        <route edges="802455775#0 802455775#1 -300593294 -164798030 -981852375 70912182 700954730 8085083 164798664 299677233#0 299677233#1 71403306#0 71403306#1 71403306#2 976752207 467004337 -976749368"/>
    </vehicle>
    <vehicle id="truck_0244" type="truck_0_truck" depart="442.60">
        <route edges="790589568#1 790589568#2 790589568#3 1055432741 802057656 466952696 466952697 48162002 299677231 164798662#0 164798662#1 460105271 981852376 29045179 700954729 1189158487 976107160#0 976107160#1 976107159"/>
    </vehicle>
    <vehicle id="truck_0247" type="truck_0_truck" depart="447.10">
        <route edges="467209749 48162005 48162006#0 416234260 300592593 416234258 71403306#0 71403306#1 71403306#2 976752207 467004337 -976749368"/>
    </vehicle>
    <vehicle id="truck_0248" type="truck_0_truck" depart="447.20">
        <route edges="976749368 976752206 447703689#0 447703689#1 467016769 467005944 299677237 1033965905 130627111#0 130627111#1 164798662#0 164798662#1 460105271 981852376 29045179 700954729 1189158487 976107160#0 976107160#1 976107159"/>
    </vehicle>
    <vehicle id="truck_0256" type="truck_0_truck" depart="464.00">
        <route edges="467209749 48162005 48162006#0 416234260 300592593 130627111#1 164798662#0 164798662#1 460105271 981852376 29045179 700954729 1189158487 976107160#0 976107160#1 976107159"/>
    </vehicle>
    <vehicle id="truck_0257" type="truck_0_truck" depart="464.20">
        <route edges="802455775#0 802455775#1 -300593294 -164798030 -981852375 70912182 700954729 1189158487 976107160#0 976107160#1 976107159"/>
    </vehicle>
    <vehicle id="truck_0264" type="truck_0_truck" depart="471.60">
        <route edges="790589568#1 790589568#2 790589568#3 1055432741 802057656 466952696 466952697 48162002 299677233#0 299677233#1 71403306#0 71403306#1 71403306#2 976752207 467004337 -976749368"/>
    </vehicle>
    <vehicle id="truck_0271" type="truck_0_truck" depart="481.10">
        <route edges="976749368 976752206 447703689#0 447703689#1 467016769 467005944 299677237 1033965905 130627111#0 130627111#1 164798662#0 130539910#0 130539910#1 30033175 466952699 466952698 164804488 446855128"/>
    </vehicle>
    <vehicle id="truck_0272" type="truck_0_truck" depart="485.50">
        <route edges="976749368"/>
    </vehicle>
    <vehicle id="truck_0274" type="truck_0_truck" depart="489.80">
        <route edges="976749368"/>
    </vehicle>
    <vehicle id="truck_0279" type="truck_0_truck" depart="495.60">
        <route edges="790589568#1 790589568#2 790589568#3 1055432741 802057656 466952696 466952697 48162002 299677233#0 299677233#1 164799269 299677237 48162003 299677230 300591205 -48162005 48161982#0"/>
    </vehicle>
    <vehicle id="truck_0280" type="truck_0_truck" depart="497.30">
        <route edges="976749368 976752206 447703689#0 447703689#1 467016769 467005944 299677237 1033965905 130627111#0 130627111#1 164798662#0 130539910#0 130539910#1 30033175 466952699 466952698 164804488 446855128"/>
    </vehicle>
    <vehicle id="truck_0281" type="truck_0_truck" depart="497.60">
        <route edges="299619486#2"/>
    </vehicle>
    <vehicle id="truck_0283" type="truck_0_truck" depart="500.40">
        <route edges="-446855128"/>
    </vehicle>
    <vehicle id="truck_0285" type="truck_0_truck" depart="502.50">
        <route edges="976749368 976752206 447703689#0 447703689#1 467016769 467005944 299677237 1033965905 130627111#0 130627111#1 164798662#0 164798662#1 460105271 981852376 29045179 700954729 1189158487 976107160#0 976107160#1 976107159"/>
    </vehicle>
    <vehicle id="truck_0289" type="truck_0_truck" depart="515.50">
        <route edges="790589568#1 790589568#2 790589568#3 1055432741 802057656 466952696 466952697 48162002 299677233#0 299677233#1 164799269 299677237 48162003 299677230 300591205 -48162005 48161982#0"/>
    </vehicle>
    <vehicle id="truck_0293" type="truck_0_truck" depart="517.90">
        <route edges="-446855128 30033180 1044768250 1044768246 1044768249 802057656 466952696 466952697 48162002 299677233#0 299677233#1 71403306#0 71403306#1 71403306#2 976752207 467004337 -976749368"/>
    </vehicle>
    <vehicle id="truck_0295" type="truck_0_truck" depart="521.70">
        <route edges="467209749 48162005 48162006#0 416234260 300592593 130627111#1 164798662#0 164798662#1 460105271 981852376 29045179 700954729 1189158487 976107160#0 976107160#1 976107159"/>
    </vehicle>
    <vehicle id="truck_0297" type="truck_0_truck" depart="525.60">
        <route edges="467209749 48162005 48162006#0 416234260 300592593 416234258 71403306#0 71403306#1 71403306#2 447703687 866820587 866820588 447703692 467042663"/>
    </vehicle>
    <vehicle id="truck_0300" type="truck_0_truck" depart="535.30">
        <route edges="-802455775#0"/>
    </vehicle>
    <vehicle id="truck_0302" type="truck_0_truck" depart="538.30">
        <route edges="790589568#1"/>
    </vehicle>
    <vehicle id="truck_0304" type="truck_0_truck" depart="541.40">
        <route edges="299619486#2"/>
    </vehicle>
    <vehicle id="truck_0306" type="truck_0_truck" depart="546.10">
        <route edges="299619486#2 362619311 866820586 866820585 976752206 447703689#0 447703689#1 467016769 467005944 299677237 1033965905 130627111#0 130627111#1 164798662#0 130539910#0 130539910#1 30033175 466952699 466952698 164804488 446855128"/>
    </vehicle>
    <vehicle id="truck_0307" type="truck_0_truck" depart="546.70">
        <route edges="299619486#2 362619311 866820586 866820585 976752206 447703689#0 447703689#1 467016769 467005944 299677237 48162003 299677230 300591205 -48162005 48161982#0"/>
    </vehicle>
    <vehicle id="truck_0308" type="truck_0_truck" depart="547.60">
        <route edges="467209749 48162005 48162006#0 416234260 300592593 416234258 71403306#0 71403306#1 71403306#2 976752207 467004337 -976749368"/>
    </vehicle>
    <vehicle id="truck_0309" type="truck_0_truck" depart="548.10">
        <route edges="-446855128 30033180 1044768250 1044768246 1044768249 802057656 466952696 466952697 48162002 299677233#0 299677233#1 71403306#0 71403306#1 71403306#2 976752207 467004337 -976749368"/>
    </vehicle>
    <vehicle id="truck_0314" type="truck_0_truck" depart="557.00">
        <route edges="467209749 48162005 48162006#0 416234260 300592593 416234258 71403306#0 71403306#1 71403306#2 976752207 467004337 -976749368"/>
    </vehicle>
    <vehicle id="truck_0319" type="truck_0_truck" depart="563.60">
        <route edges="802455775#0 802455775#1 -300593294 -164798030 -981852375 70912182 700954730 8085083 164798664 299677233#0 299677233#1 164799269 299677237 48162003 299677230 300591205 -48162005 48161982#0"/>
    </vehicle>
    <vehicle id="truck_0322" type="truck_0_truck" depart="568.70">
        <route edges="467209749"/>
    </vehicle>
    <vehicle id="truck_0323" type="truck_0_truck" depart="570.80">
        <route edges="802455775#0"/>
    </vehicle>
    <vehicle id="truck_0325" type="truck_0_truck" depart="571.30">
        <route edges="802455775#0 802455775#1 -300593294 -164798030 -981852375 70912182 700954730 8085083 164798664 299677233#0 299677233#1 71403306#0 71403306#1 71403306#2 447703687 866820587 866820588 447703692 467042663"/>
    </vehicle>
    <vehicle id="truck_0326" type="truck_0_truck" depart="572.10">
        <route edges="976749368 466974721 71403306#2 447703687 866820587 866820588 447703692 467042663"/>
    </vehicle>
    <vehicle id="truck_0327" type="truck_0_truck" depart="573.00">
        <route edges="-446855128 30033180 1044768250 1044768246 1044768249 802057656 466952696 466952697 48162002 299677231 164798662#0 164798662#1 460105271 981852376 29045179 700954729 1189158487 976107160#0 976107160#1 976107159"/>
    </vehicle>
    <vehicle id="truck_0328" type="truck_0_truck" depart="573.10">
        <route edges="790589568#1 790589568#2 790589568#3 1055432741 802057656 466952696 466952697 48162002 299677233#0 299677233#1 71403306#0 71403306#1 71403306#2 447703687 866820587 866820588 447703692 467042663"/>
    </vehicle>
    <vehicle id="truck_0330" type="truck_0_truck" depart="580.20">
        <route edges="790589568#1 790589568#2 790589568#3 1055432741 802057656 466952696 466952697 48162002 299677233#0 299677233#1 164799269 299677237 48162003 299677230 300591205 -48162005 48161982#0"/>
    </vehicle>
    <vehicle id="truck_0335" type="truck_0_truck" depart="592.40">
        <route edges="976749368 976752206 447703689#0 447703689#1 467016769 467005944 299677237 1033965905 130627111#0 130627111#1 164798662#0 130539910#0 130539910#1 30033175 466952699 466952698 164804488 446855128"/>
    </vehicle>
    <vehicle id="truck_0336" type="truck_0_truck" depart="597.20">
        <route edges="976749368 976752206 447703689#0 447703689#1 467016769 467005944 299677237 48162003 299677230 300591205 -48162005 48161982#0"/>
    </vehicle>
    <vehicle id="truck_0338" type="truck_0_truck" depart="603.00">
        <route edges="976749368 976752206 447703689#0 447703689#1 467016769 467005944 299677237 1033965905 130627111#0 130627111#1 164798662#0 164798662#1 460105271 981852376 29045179 700954729 1189158487 976107160#0 976107160#1 976107159"/>
    </vehicle>
    <vehicle id="truck_0340" type="truck_0_truck" depart="604.70">
        <route edges="299619486#2 362619311 866820586 866820585 976752206 447703689#0 447703689#1 467016769 467005944 299677237 1033965905 130627111#0 130627111#1 164798662#0 130539910#0 130539910#1 30033175 466952699 466952698 164804488 446855128"/>
    </vehicle>