<?xml version="1.0" encoding="UTF-8"?>

<!-- generated on 2025-04-24 20:15:47.844822 by randomTrips.py UNKNOWN
<configuration>
    <net-file value="data/net/san_lorenzo.net.xml"/>
    <weights-prefix value="data/net/outer_edges"/>
    <output-trip-file value="output/runs/trips_truck_0.rou.xml"/>
    <prefix value="truck_0"/>
    <trip-attributes value="color=&quot;orange&quot; length=&quot;16.5&quot; accel=&quot;1.0&quot;"/>
    <vehicle-class value="truck"/>
    <edge-param value="traveltime"/>
    <speed-exponent value="0.5"/>
    <min-distance value="50.0"/>
    <validate value="True"/>
    <end value="30000.0"/>
    <period value="6.0"/>
    <random-depart value="True"/>
</configuration>
-->

<!-- generated on 2025-04-24 20:15:47 by Eclipse SUMO duarouter Version 1.18.0
<configuration xmlns:xsi="http://www.w3.org/2001/XMLSchema-instance" xsi:noNamespaceSchemaLocation="http://sumo.dlr.de/xsd/duarouterConfiguration.xsd">

    <input>
        <net-file value="data/net/san_lorenzo.net.xml"/>
        <route-files value="output/runs/trips_truck_0.rou.xml"/>
    </input>

    <output>
        <output-file value="routes.rou.xml"/>
        <alternatives-output value="NUL"/>
    </output>

    <time>
        <begin value="0.0"/>
        <end value="30000.0"/>
    </time>

    <report>
        <no-warnings value="true"/>
        <ignore-errors value="true"/>
        <no-step-log value="true"/>
    </report>

</configuration>
-->

<routes xmlns:xsi="http://www.w3.org/2001/XMLSchema-instance" xsi:noNamespaceSchemaLocation="http://sumo.dlr.de/xsd/routes_file.xsd">
    <vType id="truck_0_truck" length="16.50" vClass="truck" color="orange" accel="1.0"/>
    <vehicle id="truck_01" type="truck_0_truck" depart="18.00">
        <route edges="467209749 48162005 48162006#0 416234260 300592593 130627111#1 164798662#0 130539910#0 130539910#1 30033175 466952699 466952698 164804488 446855128 -446855128"/>
    </vehicle>
    <vehicle id="truck_03" type="truck_0_truck" depart="35.00">
        <route edges="299619486#2 362619311 866820586 866820585 976752206 447703689#0 447703689#1 467016769 467005944 299677237 48162003 299677230 300591205 -48162005 48161982#0"/>
    </vehicle>
    <vehicle id="truck_06" type="truck_0_truck" depart="55.00">
        <route edges="-976749368 976749368 976752206 447703689#0 447703689#1 467016769 467005944 299677237 1033965905 130627111#0 130627111#1 164798662#0 164798662#1 460105271 981852376 29045179 700954729 1189158487 976107160#0 976107160#1 976107159"/>
    </vehicle>
    <vehicle id="truck_09" type="truck_0_truck" depart="84.00">
        <route edges="802455775#0 802455775#1 -300593294 -164798030 -981852375 70912182 700954729 1189158487 976107160#0 976107160#1 976107159"/>
    </vehicle>
    <vehicle id="truck_010" type="truck_0_truck" depart="84.00">
        <route edges="976749368 976752206 447703689#0 447703689#1 467016769 467005944 299677237 1033965905 130627111#0 130627111#1 164798662#0 130539910#0 130539910#1 30033175 466952699 466952698 164804488 446855128 -446855128"/>
    </vehicle>
    <vehicle id="truck_016" type="truck_0_truck" depart="116.00">
        <route edges="-802455775#0 802455775#0 802455775#1 -300593294 -164798030 -981852375 70912182 700954729 1189158487 976107160#0 976107160#1 976107159"/>
    </vehicle>
    <vehicle id="truck_020" type="truck_0_truck" depart="172.00">
        <route edges="-802455775#0"/>
    </vehicle>
    <vehicle id="truck_021" type="truck_0_truck" depart="181.00">
        <route edges="802455775#0 802455775#1 -300593294 -164798030 -981852375 70912182 700954730 8085083 130539910#1 30033175 466952699 466952698 164804488 446855128 -446855128"/>
    </vehicle>
    <vehicle id="truck_022" type="truck_0_truck" depart="193.00">
        <route edges="467209749 48162005 48162006#0 416234260 300592593 130627111#1 164798662#0 130539910#0 130539910#1 30033175 466952699 466952698 164804488 446855128"/>
    </vehicle>
    <vehicle id="truck_027" type="truck_0_truck" depart="221.00">
        <route edges="299619486#2 362619311 866820586 866820585 976752206 447703689#0 447703689#1 467016769 467005944 299677237 1033965905 130627111#0 130627111#1 164798662#0 130539910#0 130539910#1 30033175 466952699 466952698 164804488 446855128 -446855128"/>
    </vehicle>
    <vehicle id="truck_029" type="truck_0_truck" depart="235.00">
        <route edges="467209749 48162005 48162006#0 416234260 300592593 416234258 71403306#0 71403306#1 71403306#2 976752207 467004337 -976749368"/>
    </vehicle>
    <vehicle id="truck_030" type="truck_0_truck" depart="251.00">
        <route edges="-976749368 976749368 466974721 71403306#2 447703687 866820587 866820588 447703692 467042663"/>
    </vehicle>
    <vehicle id="truck_031" type="truck_0_truck" depart="253.00">
        <route edges="446855128 -446855128 30033180 1044768250 1044768246 1044768249 802057656 466952696 466952697 48162002 299677233#0 299677233#1 71403306#0 71403306#1 71403306#2 447703687 866820587 866820588 447703692 467042663"/>
    </vehicle>
    <vehicle id="truck_033" type="truck_0_truck" depart="264.00">
        <route edges="-802455775#0 802455775#0 802455775#1 -300593294 -164798030 -981852375 70912182 700954730 8085083 164798664 299677233#0 299677233#1 71403306#0 71403306#1 71403306#2 976752207 467004337 -976749368"/>
    </vehicle>
    <vehicle id="truck_035" type="truck_0_truck" depart="267.00">
        <route edges="790589568#1 790589568#2 790589568#3 1055432741 802057656 466952696 466952697 48162002 299677231 164798662#0 130539910#0 130539910#1 30033175 466952699 466952698 164804488 446855128 -446855128"/>
    </vehicle>
    <vehicle id="truck_038" type="truck_0_truck" depart="303.00">
        <route edges="357939408#0 357939408#1 980735189 980735186 980735185 8085058 8085083 164798664 299677233#0 299677233#1 71403306#0 71403306#1 71403306#2 447703687 866820587 866820588 447703692 467042663"/>
    </vehicle>
    <vehicle id="truck_040" type="truck_0_truck" depart="305.00">
        <route edges="976749368 976752206 447703689#0 447703689#1 467016769 467005944 299677237 1033965905 130627111#0 130627111#1 164798662#0 130539910#0 130539910#1 30033175 466952699 466952698 164804488 446855128 -446855128"/>
    </vehicle>
    <vehicle id="truck_041" type="truck_0_truck" depart="307.00">
        <route edges="446855128"/>
    </vehicle>
    <vehicle id="truck_044" type="truck_0_truck" depart="316.00">
        <route edges="-802455775#0 802455775#0 802455775#1 -300593294 -164798030 -981852375 70912182 700954730 8085083 130539910#1 30033175 466952699 466952698 164804488 446855128 -446855128"/>
    </vehicle>
    <vehicle id="truck_045" type="truck_0_truck" depart="332.00">
        <route edges="802455775#0 802455775#1 -300593294 -164798030 -981852375 70912182 700954730 8085083 164798664 299677233#0 299677233#1 71403306#0 71403306#1 71403306#2 976752207 467004337 -976749368 976749368"/>
    </vehicle>
    <vehicle id="truck_046" type="truck_0_truck" depart="345.00">
        <route edges="357939408#0 357939408#1 980735189 980735186 980735185 8085058 8085083 164798664 299677233#0 299677233#1 164799269 299677237 48162003 299677230 300591205 -48162005 48161982#0"/>
    </vehicle>
    <vehicle id="truck_048" type="truck_0_truck" depart="374.00">
        <route edges="-446855128"/>
    </vehicle>
    <vehicle id="truck_050" type="truck_0_truck" depart="388.00">
        <route edges="-802455775#0 802455775#0 802455775#1 -300593294 -164798030 -981852375 70912182 700954729 1189158487 976107160#0 976107160#1 976107159"/>
    </vehicle>
    <vehicle id="truck_053" type="truck_0_truck" depart="402.00">
        <route edges="802455775#0 802455775#1 -300593294 -164798030 -981852375 70912182 700954730 8085083 130539910#1 30033175 466952699 466952698 164804488 446855128"/>
    </vehicle>
    <vehicle id="truck_054" type="truck_0_truck" depart="404.00">
        <route edges="-446855128 30033180 1044768250 1044768246 1044768249 802057656 466952696 466952697 48162002 299677233#0 299677233#1 164799269 299677237 48162003 299677230 300591205 -48162005 48161982#0"/>
    </vehicle>
    <vehicle id="truck_055" type="truck_0_truck" depart="414.00">
        <route edges="-976749368"/>
    </vehicle>
    <vehicle id="truck_059" type="truck_0_truck" depart="456.00">
        <route edges="299619486#2 362619311 866820586 866820585 976752206 447703689#0 447703689#1 467016769 467005944 299677237 1033965905 130627111#0 130627111#1 164798662#0 130539910#0 130539910#1 30033175 466952699 466952698 164804488 446855128"/>
    </vehicle>
    <vehicle id="truck_060" type="truck_0_truck" depart="461.00">
        <route edges="467209749 48162005 48162006#0 416234260 300592593 130627111#1 164798662#0 130539910#0 130539910#1 30033175 466952699 466952698 164804488 446855128 -446855128"/>
    </vehicle>
    <vehicle id="truck_062" type="truck_0_truck" depart="483.00">
        <route edges="-976749368 976749368 976752206 447703689#0 447703689#1 467016769 467005944 299677237 1033965905 130627111#0 130627111#1 164798662#0 164798662#1 460105271 981852376 29045179 700954729 1189158487 976107160#0 976107160#1 976107159"/>
    </vehicle>
    <vehicle id="truck_064" type="truck_0_truck" depart="502.00">
        <route edges="802455775#0"/>
    </vehicle>
    <vehicle id="truck_070" type="truck_0_truck" depart="531.00">
        <route edges="-976749368 976749368 976752206 447703689#0 447703689#1 467016769 467005944 299677237 1033965905 130627111#0 130627111#1 164798662#0 164798662#1 460105271 981852376 29045179 700954729 1189158487 976107160#0 976107160#1 976107159"/>
    </vehicle>
    <vehicle id="truck_071" type="truck_0_truck" depart="532.00">
        <route edges="802455775#0 802455775#1 -300593294 -164798030 -981852375 70912182 700954730 8085083 130539910#1 30033175 466952699 466952698 164804488 446855128 -446855128"/>
    </vehicle>
    <vehicle id="truck_072" type="truck_0_truck" depart="533.00">
        <route edges="976749368 466974721 71403306#2 447703687 866820587 866820588 447703692 467042663"/>
    </vehicle>
    <vehicle id="truck_073" type="truck_0_truck" depart="538.00">
        <route edges="790589568#1 790589568#2 790589568#3 1055432741 802057656 466952696 466952697 48162002 299677233#0 299677233#1 71403306#0 71403306#1 71403306#2 976752207 467004337 -976749368 976749368"/>
    </vehicle>
    <vehicle id="truck_076" type="truck_0_truck" depart="548.00">
        <route edges="802455775#0 802455775#1 -300593294 -164798030 -981852375 70912182 700954729 1189158487 976107160#0 976107160#1 976107159"/>
    </vehicle>
    <vehicle id="truck_077" type="truck_0_truck" depart="561.00">
        <route edges="-446855128 30033180 1044768250 1044768246 1044768249 802057656 466952696 466952697 48162002 299677233#0 299677233#1 71403306#0 71403306#1 71403306#2 976752207 467004337 -976749368 976749368"/>
    </vehicle>
    <vehicle id="truck_078" type="truck_0_truck" depart="565.00">
        <route edges="-976749368 976749368 976752206 447703689#0 447703689#1 467016769 467005944 299677237 1033965905 130627111#0 130627111#1 164798662#0 164798662#1 460105271 981852376 29045179 700954729 1189158487 976107160#0 976107160#1 976107159"/>
    </vehicle>
    <vehicle id="truck_080" type="truck_0_truck" depart="614.00">
        <route edges="802455775#0"/>
    </vehicle>
    <vehicle id="truck_084" type="truck_0_truck" depart="638.00">
        <route edges="790589568#1 790589568#2 790589568#3 1055432741 802057656 466952696 466952697 48162002 299677233#0 299677233#1 71403306#0 71403306#1 71403306#2 976752207 467004337 -976749368 976749368"/>
    </vehicle>
    <vehicle id="truck_085" type="truck_0_truck" depart="640.00">
        <route edges="467209749"/>
    </vehicle>
    <vehicle id="truck_087" type="truck_0_truck" depart="667.00">
        <route edges="357939408#0 357939408#1 980735189 980735186 980735185 8085058 8085083 164798664 299677233#0 299677233#1 71403306#0 71403306#1 71403306#2 447703687 866820587 866820588 447703692 467042663"/>
    </vehicle>
    <vehicle id="truck_089" type="truck_0_truck" depart="683.00">
        <route edges="-976749368 976749368 466974721 71403306#2 447703687 866820587 866820588 447703692 467042663"/>
    </vehicle>
    <vehicle id="truck_090" type="truck_0_truck" depart="689.00">
        <route edges="-446855128 30033180 1044768250 1044768246 1044768249 802057656 466952696 466952697 48162002 299677231 164798662#0 164798662#1 460105271 981852376 29045179 700954729 1189158487 976107160#0 976107160#1 976107159"/>
    </vehicle>
    <vehicle id="truck_092" type="truck_0_truck" depart="713.00">
        <route edges="790589568#1 790589568#2 790589568#3 1055432741 802057656 466952696 466952697 48162002 299677231 164798662#0 164798662#1 460105271 981852376 29045179 700954729 1189158487 976107160#0 976107160#1 976107159"/>
    </vehicle>
    <vehicle id="truck_096" type="truck_0_truck" depart="759.00">
        <route edges="976107159"/>
    </vehicle>
    <vehicle id="truck_098" type="truck_0_truck" depart="800.00">
        <route edges="976749368 976752206 447703689#0 447703689#1 467016769 467005944 299677237 1033965905 130627111#0 130627111#1 164798662#0 130539910#0 130539910#1 30033175 466952699 466952698 164804488 446855128"/>
    </vehicle>
    <vehicle id="truck_0100" type="truck_0_truck" depart="812.00">
        <route edges="-802455775#0 802455775#0 802455775#1 -300593294 -164798030 -981852375 70912182 700954730 8085083 164798664 299677233#0 299677233#1 71403306#0 71403306#1 71403306#2 976752207 467004337 -976749368"/>
    </vehicle>
    <vehicle id="truck_0102" type="truck_0_truck" depart="820.00">
        <route edges="976749368 976752206 447703689#0 447703689#1 467016769 467005944 299677237 48162003 299677230 300591205 -48162005 48161982#0"/>
    </vehicle>
    <vehicle id="truck_0103" type="truck_0_truck" depart="841.00">
        <route edges="790589568#1 790589568#2 790589568#3 1055432741 802057656 466952696 466952697 48162002 299677233#0 299677233#1 71403306#0 71403306#1 71403306#2 976752207 467004337 -976749368 976749368"/>
    </vehicle>
    <vehicle id="truck_0104" type="truck_0_truck" depart="844.00">
        <route edges="802455775#0 802455775#1 -300593294 -164798030 -981852375 70912182 700954730 8085083 164798664 299677233#0 299677233#1 71403306#0 71403306#1 71403306#2 976752207 467004337 -976749368"/>
    </vehicle>
    <vehicle id="truck_0105" type="truck_0_truck" depart="847.00">
        <route edges="467209749 48162005 48162006#0 416234260 300592593 416234258 71403306#0 71403306#1 71403306#2 976752207 467004337 -976749368"/>
    </vehicle>
    <vehicle id="truck_0106" type="truck_0_truck" depart="849.00">
        <route edges="299619486#2 362619311 866820586 866820585 976752206 447703689#0 447703689#1 467016769 467005944 299677237 48162003 299677230 300591205 -48162005 48161982#0"/>
    </vehicle>
    <vehicle id="truck_0108" type="truck_0_truck" depart="860.00">
        <route edges="976749368"/>
    </vehicle>
    <vehicle id="truck_0109" type="truck_0_truck" depart="861.00">
        <route edges="446855128 -446855128 30033180 1044768250 1044768246 1044768249 802057656 466952696 466952697 48162002 299677233#0 299677233#1 71403306#0 71403306#1 71403306#2 976752207 467004337 -976749368 976749368"/>
    </vehicle>
    <vehicle id="truck_0110" type="truck_0_truck" depart="869.00">
        <route edges="976749368 976752206 447703689#0 447703689#1 467016769 467005944 299677237 1033965905 130627111#0 130627111#1 164798662#0 130539910#0 130539910#1 30033175 466952699 466952698 164804488 446855128 -446855128"/>
    </vehicle>
    <vehicle id="truck_0111" type="truck_0_truck" depart="873.00">
        <route edges="467209749 48162005 48162006#0 416234260 300592593 130627111#1 164798662#0 164798662#1 460105271 981852376 29045179 700954729 1189158487 976107160#0 976107160#1 976107159"/>
    </vehicle>
    <vehicle id="truck_0112" type="truck_0_truck" depart="873.00">
        <route edges="467209749 48162005 48162006#0 416234260 300592593 416234258 71403306#0 71403306#1 71403306#2 976752207 467004337 -976749368 976749368"/>
    </vehicle>
    <vehicle id="truck_0114" type="truck_0_truck" depart="881.00">
        <route edges="299619486#2 362619311 866820586 866820585 -976749368 976749368"/>
    </vehicle>
    <vehicle id="truck_0115" type="truck_0_truck" depart="883.00">
        <route edges="-976749368 976749368 976752206 447703689#0 447703689#1 467016769 467005944 299677237 1033965905 130627111#0 130627111#1 164798662#0 164798662#1 460105271 981852376 29045179 700954729 1189158487 976107160#0 976107160#1 976107159"/>
    </vehicle>
    <vehicle id="truck_0119" type="truck_0_truck" depart="929.00">
        <route edges="299619486#2 362619311 866820586 866820585 976752206 447703689#0 447703689#1 467016769 467005944 299677237 1033965905 130627111#0 130627111#1 164798662#0 130539910#0 130539910#1 30033175 466952699 466952698 164804488 446855128 -446855128"/>
    </vehicle>
    <vehicle id="truck_0121" type="truck_0_truck" depart="945.00">
        <route edges="790589568#1 790589568#2 790589568#3 1055432741 802057656 466952696 466952697 48162002 299677233#0 299677233#1 71403306#0 71403306#1 71403306#2 976752207 467004337 -976749368 976749368"/>
    </vehicle>
    <vehicle id="truck_0124" type="truck_0_truck" depart="951.00">
        <route edges="-802455775#0 802455775#0 802455775#1 -300593294 -164798030 -981852375 70912182 700954730 8085083 164798664 299677233#0 299677233#1 71403306#0 71403306#1 71403306#2 447703687 866820587 866820588 447703692 467042663"/>
    </vehicle>
    <vehicle id="truck_0129" type="truck_0_truck" depart="992.00">
        <route edges="976749368 976752206 447703689#0 447703689#1 467016769 467005944 299677237 1033965905 130627111#0 130627111#1 164798662#0 130539910#0 130539910#1 30033175 466952699 466952698 164804488 446855128 -446855128"/>
    </vehicle>
    <vehicle id="truck_0133" type="truck_0_truck" depart="1020.00">
        <route edges="467209749"/>
    </vehicle>
    <vehicle id="truck_0136" type="truck_0_truck" depart="1034.00">
        <route edges="-802455775#0 802455775#0 802455775#1 -300593294 -164798030 -981852375 70912182 700954730 8085083 164798664 299677233#0 299677233#1 71403306#0 71403306#1 71403306#2 976752207 467004337 -976749368"/>
    </vehicle>
    <vehicle id="truck_0138" type="truck_0_truck" depart="1039.00">
        <route edges="790589568#1"/>
    </vehicle>
    <vehicle id="truck_0139" type="truck_0_truck" depart="1041.00">
        <route edges="299619486#2"/>
    </vehicle>
    <vehicle id="truck_0140" type="truck_0_truck" depart="1051.00">
        <route edges="299619486#2 362619311 866820586 866820585 976752206 447703689#0 447703689#1 467016769 467005944 299677237 1033965905 130627111#0 130627111#1 164798662#0 130539910#0 130539910#1 30033175 466952699 466952698 164804488 446855128 -446855128"/>
    </vehicle>
    <vehicle id="truck_0144" type="truck_0_truck" depart="1069.00">
        <route edges="-976749368 976749368 976752206 447703689#0 447703689#1 467016769 467005944 299677237 1033965905 130627111#0 130627111#1 164798662#0 130539910#0 130539910#1 30033175 466952699 466952698 164804488 446855128 -446855128"/>
    </vehicle>
    <vehicle id="truck_0146" type="truck_0_truck" depart="1072.00">
        <route edges="357939408#0 357939408#1 980735189 980735186 980735185 8085058 8085083 130539910#1 30033175 466952699 466952698 164804488 446855128"/>
    </vehicle>
    <vehicle id="truck_0149" type="truck_0_truck" depart="1100.00">
        <route edges="-976749368 976749368 976752206 447703689#0 447703689#1 467016769 467005944 299677237 1033965905 130627111#0 130627111#1 164798662#0 164798662#1 460105271 981852376 29045179 700954729 1189158487 976107160#0 976107160#1 976107159"/>
    </vehicle>
    <vehicle id="truck_0150" type="truck_0_truck" depart="1108.00">
        <route edges="357939408#0 357939408#1 980735189 980735186 980735185 8085058 8085083 130539910#1 30033175 466952699 466952698 164804488 446855128"/>
    </vehicle>
    <vehicle id="truck_0151" type="truck_0_truck" depart="1140.00">
        <route edges="299619486#2 362619311 866820586 866820585 466974721 71403306#2 447703687 866820587 866820588 447703692 467042663"/>
    </vehicle>
    <vehicle id="truck_0158" type="truck_0_truck" depart="1204.00">
        <route edges="802455775#0 802455775#1 -300593294 -164798030 -981852375 70912182 700954730 8085083 130539910#1 30033175 466952699 466952698 164804488 446855128"/>
    </vehicle>
    <vehicle id="truck_0164" type="truck_0_truck" depart="1232.00">
        <route edges="802455775#0 802455775#1 -300593294 -164798030 -981852375 70912182 700954730 8085083 164798664 299677233#0 299677233#1 164799269 299677237 48162003 299677230 300591205 -48162005 48161982#0"/>
    </vehicle>
    <vehicle id="truck_0166" type="truck_0_truck" depart="1253.00">
        <route edges="790589568#1 790589568#2 790589568#3 1055432741 802057656 466952696 466952697 48162002 299677233#0 299677233#1 71403306#0 71403306#1 71403306#2 976752207 467004337 -976749368"/>
    </vehicle>
    <vehicle id="truck_0167" type="truck_0_truck" depart="1255.00">
        <route edges="976749368"/>
    </vehicle>
    <vehicle id="truck_0168" type="truck_0_truck" depart="1268.00">
        <route edges="446855128 -446855128 30033180 1044768250 1044768246 1044768249 802057656 466952696 466952697 48162002 299677233#0 299677233#1 71403306#0 71403306#1 71403306#2 976752207 467004337 -976749368 976749368"/>
    </vehicle>
    <vehicle id="truck_0169" type="truck_0_truck" depart="1275.00">
        <route edges="446855128 -446855128 30033180 1044768250 1044768246 1044768249 802057656 466952696 466952697 48162002 299677233#0 299677233#1 71403306#0 71403306#1 71403306#2 976752207 467004337 -976749368 976749368"/>
    </vehicle>
    <vehicle id="truck_0171" type="truck_0_truck" depart="1291.00">
        <route edges="299619486#2 362619311 866820586 866820585 976752206 447703689#0 447703689#1 467016769 467005944 299677237 1033965905 130627111#0 130627111#1 164798662#0 164798662#1 460105271 981852376 29045179 700954729 1189158487 976107160#0 976107160#1 976107159"/>
    </vehicle>
    <vehicle id="truck_0173" type="truck_0_truck" depart="1302.00">
        <route edges="446855128"/>
    </vehicle>
    <vehicle id="truck_0175" type="truck_0_truck" depart="1306.00">
        <route edges="446855128 -446855128 30033180 1044768250 1044768246 1044768249 802057656 466952696 466952697 48162002 299677231 164798662#0 164798662#1 460105271 981852376 29045179 700954729 1189158487 976107160#0 976107160#1 976107159"/>
    </vehicle>
    <vehicle id="truck_0176" type="truck_0_truck" depart="1307.00">
        <route edges="802455775#0 802455775#1 -300593294 -164798030 -981852375 70912182 700954730 8085083 164798664 299677233#0 299677233#1 164799269 299677237 48162003 299677230 300591205 -48162005 48161982#0"/>
    </vehicle>
    <vehicle id="truck_0180" type="truck_0_truck" depart="1344.00">
        <route edges="976749368"/>
    </vehicle>
    <vehicle id="truck_0182" type="truck_0_truck" depart="1349.00">
        <route edges="299619486#2 362619311 866820586 866820585 466974721 71403306#2 447703687 866820587 866820588 447703692 467042663"/>
    </vehicle>
    <vehicle id="truck_0183" type="truck_0_truck" depart="1363.00">
        <route edges="357939408#0 357939408#1 980735189 980735186 980735185 8085058 8085083 130539910#1 30033175 466952699 466952698 164804488 446855128"/>
    </vehicle>
    <vehicle id="truck_0184" type="truck_0_truck" depart="1370.00">
        <route edges="357939408#0 357939408#1 980735189 980735186 980735185 8085058 8085083 164798664 299677233#0 299677233#1 71403306#0 71403306#1 71403306#2 447703687 866820587 866820588 447703692 467042663"/>
    </vehicle>
    <vehicle id="truck_0185" type="truck_0_truck" depart="1373.00">
        <route edges="467209749 48162005 48162006#0 416234260 300592593 130627111#1 164798662#0 130539910#0 130539910#1 30033175 466952699 466952698 164804488 446855128 -446855128"/>
    </vehicle>
    <vehicle id="truck_0188" type="truck_0_truck" depart="1387.00">
        <route edges="-446855128 30033180 1044768250 1044768246 1044768249 802057656 466952696 466952697 48162002 299677231 164798662#0 164798662#1 460105271 981852376 29045179 700954729 1189158487 976107160#0 976107160#1 976107159"/>
    </vehicle>
    <vehicle id="truck_0190" type="truck_0_truck" depart="1420.00">
        <route edges="790589568#1 790589568#2 790589568#3 1055432741 802057656 466952696 466952697 48162002 299677231 164798662#0 164798662#1 460105271 981852376 29045179 700954729 1189158487 976107160#0 976107160#1 976107159"/>
    </vehicle>
    <vehicle id="truck_0193" type="truck_0_truck" depart="1430.00">
        <route edges="299619486#2 362619311 866820586 866820585 466974721 71403306#2 447703687 866820587 866820588 447703692 467042663"/>
    </vehicle>
    <vehicle id="truck_0196" type="truck_0_truck" depart="1443.00">
        <route edges="976749368 976752206 447703689#0 447703689#1 467016769 467005944 299677237 1033965905 130627111#0 130627111#1 164798662#0 130539910#0 130539910#1 30033175 466952699 466952698 164804488 446855128"/>
    </vehicle>
    <vehicle id="truck_0198" type="truck_0_truck" depart="1449.00">
        <route edges="446855128 -446855128 30033180 1044768250 1044768246 1044768249 802057656 466952696 466952697 48162002 299677233#0 299677233#1 164799269 299677237 48162003 299677230 300591205 -48162005 48161982#0"/>
    </vehicle>
    <vehicle id="truck_0199" type="truck_0_truck" depart="1451.00">
        <route edges="-976749368"/>
    </vehicle>
    <vehicle id="truck_0201" type="truck_0_truck" depart="1454.00">
        <route edges="790589568#1 790589568#2 790589568#3 1055432741 802057656 466952696 466952697 48162002 299677231 164798662#0 164798662#1 460105271 981852376 29045179 700954729 1189158487 976107160#0 976107160#1 976107159"/>
    </vehicle>
    <vehicle id="truck_0202" type="truck_0_truck" depart="1464.00">
        <route edges="802455775#0 802455775#1 -300593294 -164798030 -981852375 70912182 700954730 8085083 164798664 299677233#0 299677233#1 71403306#0 71403306#1 71403306#2 447703687 866820587 866820588 447703692 467042663"/>
    </vehicle>
    <vehicle id="truck_0205" type="truck_0_truck" depart="1484.00">
        <route edges="976107159"/>
    </vehicle>
    <vehicle id="truck_0206" type="truck_0_truck" depart="1485.00">
        <route edges="-446855128 30033180 1044768250 1044768246 1044768249 802057656 466952696 466952697 48162002 299677233#0 299677233#1 71403306#0 71403306#1 71403306#2 976752207 467004337 -976749368"/>
    </vehicle>
    <vehicle id="truck_0207" type="truck_0_truck" depart="1488.00">
        <route edges="802455775#0"/>
    </vehicle>
    <vehicle id="truck_0208" type="truck_0_truck" depart="1489.00">
        <route edges="299619486#2 362619311 866820586 866820585 976752206 447703689#0 447703689#1 467016769 467005944 299677237 1033965905 130627111#0 130627111#1 164798662#0 130539910#0 130539910#1 30033175 466952699 466952698 164804488 446855128"/>
    </vehicle>
    <vehicle id="truck_0212" type="truck_0_truck" depart="1504.00">
        <route edges="-802455775#0 802455775#0 802455775#1 -300593294 -164798030 -981852375 70912182 700954730 8085083 130539910#1 30033175 466952699 466952698 164804488 446855128 -446855128"/>
    </vehicle>
    <vehicle id="truck_0214" type="truck_0_truck" depart="1506.00">
        <route edges="-976749368 976749368 976752206 447703689#0 447703689#1 467016769 467005944 299677237 1033965905 130627111#0 130627111#1 164798662#0 164798662#1 460105271 981852376 29045179 700954729 1189158487 976107160#0 976107160#1 976107159"/>
    </vehicle>
    <vehicle id="truck_0216" type="truck_0_truck" depart="1514.00">
        <route edges="-976749368 976749368 976752206 447703689#0 447703689#1 467016769 467005944 299677237 1033965905 130627111#0 130627111#1 164798662#0 164798662#1 460105271 981852376 29045179 700954729 1189158487 976107160#0 976107160#1 976107159"/>
    </vehicle>
    <vehicle id="truck_0217" type="truck_0_truck" depart="1525.00">
        <route edges="790589568#1 790589568#2 790589568#3 1055432741 802057656 466952696 466952697 48162002 299677233#0 299677233#1 164799269 299677237 48162003 299677230 300591205 -48162005 48161982#0"/>
    </vehicle>
    <vehicle id="truck_0218" type="truck_0_truck" depart="1536.00">
        <route edges="299619486#2 362619311 866820586 866820585 976752206 447703689#0 447703689#1 467016769 467005944 299677237 1033965905 130627111#0 130627111#1 164798662#0 130539910#0 130539910#1 30033175 466952699 466952698 164804488 446855128"/>
    </vehicle>
    <vehicle id="truck_0220" type="truck_0_truck" depart="1564.00">
        <route edges="976749368 976752206 447703689#0 447703689#1 467016769 467005944 299677237 1033965905 130627111#0 130627111#1 164798662#0 164798662#1 460105271 981852376 29045179 700954729 1189158487 976107160#0 976107160#1 976107159"/>
    </vehicle>
    <vehicle id="truck_0221" type="truck_0_truck" depart="1566.00">
        <route edges="48161982#0"/>
    </vehicle>
    <vehicle id="truck_0222" type="truck_0_truck" depart="1586.00">
        <route edges="299619486#2 362619311 866820586 866820585 976752206 447703689#0 447703689#1 467016769 467005944 299677237 1033965905 130627111#0 130627111#1 164798662#0 130539910#0 130539910#1 30033175 466952699 466952698 164804488 446855128"/>
    </vehicle>
    <vehicle id="truck_0224" type="truck_0_truck" depart="1594.00">
        <route edges="790589568#1 790589568#2 790589568#3 1055432741 802057656 466952696 466952697 48162002 299677231 164798662#0 130539910#0 130539910#1 30033175 466952699 466952698 164804488 446855128 -446855128"/>
    </vehicle>
    <vehicle id="truck_0226" type="truck_0_truck" depart="1607.00">