<?xml version="1.0" encoding="UTF-8"?>

<!-- generated on 2025-04-20 00:38:18.748500 by randomTrips.py UNKNOWN
<configuration>
    <net-file value="data/net/san_lorenzo.net.xml"/>
    <output-trip-file value="output/runs/trips_truck_0.rou.xml"/>
    <prefix value="truck_0"/>
    <trip-attributes value="length=&quot;16.5&quot; accel=&quot;1.0&quot; color=&quot;orange&quot;"/>
    <vehicle-class value="truck"/>
    <edge-param value="traveltime"/>
    <speed-exponent value="0.5"/>
    <fringe-factor value="0.1"/>
    <min-distance value="50.0"/>
    <validate value="True"/>
    <begin value="25200.0"/>
    <end value="28800.0"/>
    <period value="20.0"/>
    <random-depart value="True"/>
</configuration>
-->

<!-- generated on 2025-04-20 00:38:18 by Eclipse SUMO duarouter Version 1.18.0
<configuration xmlns:xsi="http://www.w3.org/2001/XMLSchema-instance" xsi:noNamespaceSchemaLocation="http://sumo.dlr.de/xsd/duarouterConfiguration.xsd">

    <input>
        <net-file value="data/net/san_lorenzo.net.xml"/>
        <route-files value="output/runs/trips_truck_0.rou.xml"/>
    </input>

    <output>
        <output-file value="routes.rou.xml"/>
        <alternatives-output value="NUL"/>
    </output>

    <time>
        <begin value="25200.0"/>
        <end value="28800.0"/>
    </time>

    <report>
        <no-warnings value="true"/>
        <ignore-errors value="true"/>
        <no-step-log value="true"/>
    </report>

</configuration>
-->

<routes xmlns:xsi="http://www.w3.org/2001/XMLSchema-instance" xsi:noNamespaceSchemaLocation="http://sumo.dlr.de/xsd/routes_file.xsd">
    <vType id="truck_0_truck" length="16.50" vClass="truck" color="orange" accel="1.0"/>
    <vehicle id="truck_00" type="truck_0_truck" depart="25226.00">
        <route edges="976107159 981035388 981035391 981035393 802455775#0 802455775#1 -300593294"/>
    </vehicle>
    <vehicle id="truck_01" type="truck_0_truck" depart="25302.00">
        <route edges="71403306#1 71403306#2 976752207 467004337 976752206 447703689#0 447703689#1 467016769 467005944 299677237 48162003 299677230 300591205 48162006#0 48162006#1"/>
    </vehicle>
    <vehicle id="truck_02" type="truck_0_truck" depart="25308.00">
        <route edges="460105271 981852376 29045179"/>
    </vehicle>
    <vehicle id="truck_03" type="truck_0_truck" depart="25322.00">
        <route edges="48162003 299677230 300591205 48162006#0 416234260 300592593 130627111#1 164798662#0 130539910#0 130539910#1 30033175 466952699 466952698 976752599 1044768246 1044768249"/>
    </vehicle>
    <vehicle id="truck_04" type="truck_0_truck" depart="25330.00">
        <route edges="357939408#1 980735189 980735186 980735185 8085058 8085083 164798664 299677233#0 299677233#1 164799269 299677237 1033965905 130627111#0 416234258"/>
    </vehicle>
    <vehicle id="truck_05" type="truck_0_truck" depart="25331.00">
        <route edges="981035388 -981035392 981035389 357939408#0 357939408#1 980735189 980735186 980735185 8085058 8085083 164798664 299677231 164798662#0 164798662#1 460105271 981852376 29045179 700954729 1189158487 976107160#0 976107160#1"/>
    </vehicle>
    <vehicle id="truck_06" type="truck_0_truck" depart="25377.00">
        <route edges="164804488 30033180 1044768250 1044768246 1044768249 802057656 466952696 466952697 48162002 299677233#0 299677233#1 71403306#0 71403306#1 71403306#2 976752207 467004337 976752206 447703689#0"/>
    </vehicle>
    <vehicle id="truck_07" type="truck_0_truck" depart="25387.00">
        <route edges="130539911#1 164798662#1 460105271 981852376 29045179 700954729 1189158487 976107160#0 976107160#1 976107159 981035388 -981035392 981035389 357939408#0 357939408#1 980735189 980735186 980735185"/>
    </vehicle>
    <vehicle id="truck_08" type="truck_0_truck" depart="25392.00">
        <route edges="976107160#0 976107160#1 976107159 981035388 -981035392 981035389 357939408#0 357939408#1 980735189 980735186 980735185 8085058 8085083 164798664 299677233#0 299677233#1 164799269 299677237 48162003 299677230"/>
    </vehicle>
    <vehicle id="truck_09" type="truck_0_truck" depart="25429.00">
        <route edges="48162003 299677230 300591205 48162006#0 416234260 300592593 416234258 71403306#0 71403306#1 71403306#2 976752207 467004337 976752206 447703689#0 447703689#1 467016769"/>
    </vehicle>
    <vehicle id="truck_011" type="truck_0_truck" depart="25471.00">
        <route edges="460105271 981852376 29045179 700954730 8085083 130539910#1 30033175 466952699 466952698 976752599 1044768246 1044768249 802057656"/>
    </vehicle>
    <vehicle id="truck_013" type="truck_0_truck" depart="25492.00">
        <route edges="299677233#0 299677233#1 164799269 299677237 1033965905 130627111#0 130627111#1 164798662#0 164798662#1 460105271 981852376 29045179 700954729 1189158487 976107160#0 976107160#1 976107159 981035388 981035391 981035393 -443657025"/>
    </vehicle>
    <vehicle id="truck_014" type="truck_0_truck" depart="25522.00">
        <route edges="980735189 980735186 980735185 8085058 8085083 164798664 299677231 164798662#0 164798662#1 460105271 981852376 29045179 700954729 1189158487 976107160#0 976107160#1"/>
    </vehicle>
    <vehicle id="truck_016" type="truck_0_truck" depart="25556.00">
        <route edges="-981035391 -981035392 981035389 357939408#0 357939408#1 980735189 980735186 980735185 8085058 8085083 164798664 299677231 164798662#0 164798662#1 460105271 981852376 29045179 700954729 1189158487 976107160#0 976107160#1"/>
    </vehicle>
    <vehicle id="truck_019" type="truck_0_truck" depart="25583.00">
        <route edges="790589568#3"/>
    </vehicle>
    <vehicle id="truck_020" type="truck_0_truck" depart="25596.00">
        <route edges="1055432741 802057656 466952696 466952697 48162002 299677231 164798662#0 164798662#1 460105271 981852376 29045179 700954729 1189158487 976107160#0 976107160#1 976107159 981035388 981035391 981035393 -443657025 443657025"/>
    </vehicle>
    <vehicle id="truck_021" type="truck_0_truck" depart="25613.00">
        <route edges="466952696 466952697 48162002 299677231 164798662#0 130539910#0 130539910#1 30033175 466952699 466952698 164804488"/>
    </vehicle>
    <vehicle id="truck_022" type="truck_0_truck" depart="25618.00">
        <route edges="976107160#0 976107160#1 976107159 981035388 -981035392 981035389 357939408#0"/>
    </vehicle>
    <vehicle id="truck_023" type="truck_0_truck" depart="25619.00">
        <route edges="164798662#0 164798662#1 460105271"/>
    </vehicle>
    <vehicle id="truck_024" type="truck_0_truck" depart="25649.00">
        <route edges="71403306#2 976752207 467004337 976752206 447703689#0 447703689#1 467016769 467005944 299677237 1033965905 130627111#0 130627111#1 164798662#0 164798662#1 460105271 981852376 29045179 700954729 1189158487 976107160#0 976107160#1 976107159 981035388 981035391 981035393 802455775#0 802455775#1 -300593294 -164798030 -981852375 981852375 164798030"/>
    </vehicle>
    <vehicle id="truck_025" type="truck_0_truck" depart="25656.00">
        <route edges="299677231 164798662#0 164798662#1 460105271 981852376"/>
    </vehicle>
    <vehicle id="truck_028" type="truck_0_truck" depart="25771.00">
        <route edges="164798662#1 460105271 981852376 29045179 700954730 8085083 164798664 299677233#0 299677233#1"/>
    </vehicle>
    <vehicle id="truck_029" type="truck_0_truck" depart="25771.00">
        <route edges="466974721 71403306#2 976752207 467004337 976752206 447703689#0 447703689#1 467016769 467005944 299677237 1033965905 130627111#0 130627111#1 164798662#0 164798662#1"/>
    </vehicle>
    <vehicle id="truck_030" type="truck_0_truck" depart="25785.00">
        <route edges="164798662#1 460105271 981852376 29045179 700954729 1189158487 976107160#0 976107160#1 976107159 981035388 -981035392"/>
    </vehicle>
    <vehicle id="truck_031" type="truck_0_truck" depart="25826.00">
        <route edges="48162002 299677231 164798662#0 164798662#1"/>
    </vehicle>
    <vehicle id="truck_032" type="truck_0_truck" depart="25836.00">
        <route edges="976752599 1044768246 1044768249 802057656 466952696 466952697 48162002 299677231 164798662#0 164798662#1 460105271 981852376 29045179 700954729 1189158487 976107160#0 976107160#1 976107159"/>
    </vehicle>
    <vehicle id="truck_033" type="truck_0_truck" depart="25853.00">
        <route edges="-981035392 981035389 357939408#0 357939408#1 980735189 980735186 980735185 8085058 8085083 164798664"/>
    </vehicle>
    <vehicle id="truck_034" type="truck_0_truck" depart="25855.00">
        <route edges="48162006#0 416234260 300592593 130627111#1 164798662#0"/>
    </vehicle>
    <vehicle id="truck_035" type="truck_0_truck" depart="25866.00">
        <route edges="1055432741 802057656 466952696 466952697 48162002 299677231 164798662#0 164798662#1 460105271 981852376 29045179 700954729 1189158487 976107160#0 976107160#1 976107159 981035388 -981035392 -981035386 -70579088 70579088 981035386"/>
    </vehicle>
    <vehicle id="truck_036" type="truck_0_truck" depart="25869.00">
        <route edges="466952698 976752599 1044768246 1044768249 802057656 466952696 466952697 48162002 299677233#0 299677233#1 164799269 299677237 48162003 299677230 300591205 48162006#0 416234260"/>
    </vehicle>
    <vehicle id="truck_037" type="truck_0_truck" depart="25900.00">
        <route edges="802455775#0 802455775#1 -300593294 -164798030 -981852375 70912182 700954730 8085083"/>
    </vehicle>
    <vehicle id="truck_038" type="truck_0_truck" depart="25987.00">
        <route edges="416234260 300592593 416234258 71403306#0 71403306#1"/>
    </vehicle>
    <vehicle id="truck_039" type="truck_0_truck" depart="26014.00">
        <route edges="48162006#0 416234260 300592593 130627111#1 164798662#0 164798662#1 460105271 981852376 29045179 700954729 1189158487 976107160#0 976107160#1 976107159 981035388 -981035392 -981035386 -70579088 70579088 981035386 981035392"/>
    </vehicle>
    <vehicle id="truck_040" type="truck_0_truck" depart="26058.00">
        <route edges="1033965905 130627111#0 416234258 164799269 299677237 48162003 299677230 300591205 48162006#0 416234260 300592594"/>
    </vehicle>
    <vehicle id="truck_041" type="truck_0_truck" depart="26064.00">
        <route edges="299677233#1 164799269 299677237 1033965905 130627111#0 130627111#1 164798662#0 164798662#1 460105271 981852376 29045179 700954729 1189158487 976107160#0 976107160#1 976107159"/>
    </vehicle>
    <vehicle id="truck_042" type="truck_0_truck" depart="26070.00">
        <route edges="164799269 299677237 1033965905 130627111#0"/>
    </vehicle>
    <vehicle id="truck_043" type="truck_0_truck" depart="26081.00">
        <route edges="416234258 164799269 299677237 1033965905 130627111#0 130627111#1 164798662#0 164798662#1 460105271 981852376 29045179 700954729 1189158487 976107160#0 976107160#1 976107159 981035388 -981035392 981035389 357939408#0"/>
    </vehicle>
    <vehicle id="truck_044" type="truck_0_truck" depart="26095.00">
        <route edges="299619486#1 299619486#2 362619311 866820586 866820585 976752206 447703689#0 447703689#1 467016769 467005944 299677237 1033965905 130627111#0 416234258 164799269"/>
    </vehicle>
    <vehicle id="truck_046" type="truck_0_truck" depart="26099.00">
        <route edges="976107159 981035388 -981035392 981035389 357939408#0 357939408#1 980735189 980735186 980735185 8085058 8085083 130539910#1 30033175 466952699 466952698 976752599 1044768246 1044768249 802057656 466952696"/>
    </vehicle>
    <vehicle id="truck_047" type="truck_0_truck" depart="26102.00">
        <route edges="-981035386 -70579088 70579088 981035386 981035389 357939408#0 357939408#1 980735189 980735186 980735185 8085058 8085083 164798664 299677231 164798662#0 164798662#1 460105271 981852376"/>
    </vehicle>
    <vehicle id="truck_049" type="truck_0_truck" depart="26133.00">
        <route edges="980735189 980735186 980735185 8085058 8085083 164798664 299677233#0 299677233#1 71403306#0 71403306#1 71403306#2 447703687 866820587 866820588"/>
    </vehicle>
    <vehicle id="truck_050" type="truck_0_truck" depart="26138.00">
        <route edges="130539910#1 30033175 466952699 466952698 976752599 1044768246 1044768249 802057656 466952696 466952697 48162002 299677233#0 299677233#1 71403306#0 71403306#1 71403306#2 447703687"/>
    </vehicle>
    <vehicle id="truck_051" type="truck_0_truck" depart="26152.00">
        <route edges="164798662#0 130539910#0 164798664 299677233#0 299677233#1 164799269 299677237 48162003 299677230 300591205 48162006#0 416234260 300592593"/>
    </vehicle>
    <vehicle id="truck_052" type="truck_0_truck" depart="26153.00">
        <route edges="-981035391 -981035392 981035389 357939408#0 357939408#1 980735189 980735186 980735185 8085058 8085083 164798664 299677231 130539908 300591203"/>
    </vehicle>
    <vehicle id="truck_053" type="truck_0_truck" depart="26202.00">
        <route edges="981035393 802455775#0 802455775#1 -300593294 -164798030 -981852375 70912182 700954730 8085083 130539910#1 30033175 466952699 466952698 164804488"/>
    </vehicle>
    <vehicle id="truck_054" type="truck_0_truck" depart="26203.00">
        <route edges="802455775#0 802455775#1 -300593294 -164798030 -981852375 70912182 700954730 8085083 164798664 299677233#0 299677233#1 164799269 299677237 1033965905 130627111#0 416234258"/>
    </vehicle>
    <vehicle id="truck_055" type="truck_0_truck" depart="26210.00">
        <route edges="357939408#0 357939408#1 980735189 980735186 980735185 8085058 8085083 164798664 299677231 164798662#0 164798662#1 460105271 981852376 29045179 700954729 1189158487 976107160#0 976107160#1 976107159 981035388"/>
    </vehicle>
    <vehicle id="truck_056" type="truck_0_truck" depart="26229.00">
        <route edges="981852376 29045179 700954730 8085083 130539910#1 30033175 466952699 466952698 976752599 1044768246 1044768249 802057656 466952696"/>
    </vehicle>
    <vehicle id="truck_057" type="truck_0_truck" depart="26276.00">
        <route edges="71403306#1 71403306#2 976752207 467004337 976752206 447703689#0 447703689#1 467016769 467005944 299677237 1033965905 130627111#0 130627111#1 164798662#0 130539910#0"/>
    </vehicle>
    <vehicle id="truck_058" type="truck_0_truck" depart="26283.00">
        <route edges="299619486#2 362619311 866820586 866820585 976752206 447703689#0 447703689#1 467016769 467005944 299677237 1033965905 130627111#0 130627111#1 164798662#0 164798662#1 460105271 981852376 29045179 700954729 1189158487 976107160#0 976107160#1 976107159 981035388 -981035392 981035389"/>
    </vehicle>
    <vehicle id="truck_059" type="truck_0_truck" depart="26284.00">
        <route edges="466952699 466952698 976752599 1044768246 1044768249 802057656 466952696 466952697 48162002 299677231 164798662#0 164798662#1 460105271"/>
    </vehicle>
    <vehicle id="truck_060" type="truck_0_truck" depart="26293.00">
        <route edges="790589568#1 790589568#2 790589568#3 1055432741 802057656 466952696 466952697 48162002 299677231 164798662#0 164798662#1 460105271 981852376 29045179 700954729 1189158487 976107160#0 976107160#1 976107159 981035388 981035391 981035393 -981035393 -981035391"/>
    </vehicle>
    <vehicle id="truck_061" type="truck_0_truck" depart="26296.00">
        <route edges="466974721 71403306#2 976752207 467004337 976752206 447703689#0 447703689#1"/>
    </vehicle>
    <vehicle id="truck_063" type="truck_0_truck" depart="26326.00">
        <route edges="981035389 357939408#0 357939408#1 980735189 980735186 980735185 8085058 8085083 164798664 299677231 164798662#0 164798662#1 460105271 981852376 29045179 700954729 1189158487 976107160#0 976107160#1 976107159 981035388 981035391 981035393 802455775#0 802455775#1 -300593294 -164798030 -981852375"/>
    </vehicle>
    <vehicle id="truck_064" type="truck_0_truck" depart="26338.00">
        <route edges="130627111#0 416234258 71403306#0 71403306#1 71403306#2 976752207 467004337"/>
    </vehicle>
    <vehicle id="truck_065" type="truck_0_truck" depart="26338.00">
        <route edges="48162006#1 130539911#0 130539911#1 130539910#0 164798664"/>
    </vehicle>
    <vehicle id="truck_066" type="truck_0_truck" depart="26339.00">
        <route edges="1044768250 1044768246 1044768249 802057656 466952696 466952697 48162002 299677233#0 299677233#1 71403306#0 71403306#1 71403306#2 976752207 467004337 976752206"/>
    </vehicle>
    <vehicle id="truck_067" type="truck_0_truck" depart="26385.00">
        <route edges="164799269 299677237 1033965905 130627111#0 416234258 71403306#0 71403306#1 71403306#2 976752207 467004337"/>
    </vehicle>
    <vehicle id="truck_069" type="truck_0_truck" depart="26488.00">
        <route edges="466974721 71403306#2 976752207 467004337 976752206 447703689#0 447703689#1 467016769 467005944 299677237 1033965905 130627111#0 130627111#1 164798662#0 164798662#1 460105271 981852376 29045179 700954729 1189158487 976107160#0 976107160#1 976107159 981035388 981035387 447703690#0 447703690#1"/>
    </vehicle>
    <vehicle id="truck_070" type="truck_0_truck" depart="26492.00">
        <route edges="981035386 981035392 981035391 981035393 802455775#0 802455775#1 -300593294 -164798030 -981852375 981852375 164798030"/>
    </vehicle>
    <vehicle id="truck_071" type="truck_0_truck" depart="26528.00">
        <route edges="71403306#1 71403306#2 976752207 467004337 976752206 447703689#0 447703689#1 467016769 467005944 299677237 1033965905 130627111#0 130627111#1 164798662#0 130539910#0 164798664"/>
    </vehicle>
    <vehicle id="truck_072" type="truck_0_truck" depart="26578.00">
        <route edges="300592593 416234258 164799269 299677237 48162003 299677230 300591205 48162006#0"/>
    </vehicle>
    <vehicle id="truck_073" type="truck_0_truck" depart="26593.00">
        <route edges="299677230 300591205 48162006#0 416234260 300592593 130627111#1 164798662#0 130539910#0 164798664 299677231"/>
    </vehicle>
    <vehicle id="truck_074" type="truck_0_truck" depart="26608.00">
        <route edges="790589568#2 790589568#3 1055432741 802057656 466952696 466952697 48162002 299677231 164798662#0 164798662#1 460105271 981852376 29045179 700954729 1189158487 976107160#0 976107160#1 976107159 981035388 981035391 981035393 -981035393"/>
    </vehicle>
    <vehicle id="truck_075" type="truck_0_truck" depart="26655.00">
        <route edges="416234258 164799269 299677237 1033965905 130627111#0 130627111#1 164798662#0 164798662#1 460105271 981852376"/>
    </vehicle>
    <vehicle id="truck_076" type="truck_0_truck" depart="26670.00">
        <route edges="981852376 29045179 700954729 1189158487 976107160#0 976107160#1 976107159 981035388 981035391 981035393 -981035393"/>
    </vehicle>
    <vehicle id="truck_077" type="truck_0_truck" depart="26681.00">
        <route edges="164798662#0 130539910#0 130539910#1 30033175 466952699 466952698 164804488"/>
    </vehicle>
    <vehicle id="truck_078" type="truck_0_truck" depart="26682.00">
        <route edges="980735189 980735186 980735185 8085058 8085083 164798664 299677231 164798662#0 164798662#1 460105271 981852376 29045179 700954729 1189158487 976107160#0 976107160#1"/>
    </vehicle>
    <vehicle id="truck_079" type="truck_0_truck" depart="26694.00">
        <route edges="976107160#1 976107159 981035388 -981035392 981035389 357939408#0 357939408#1 980735189 980735186 980735185 8085058 8085083 130539910#1 30033175 466952699 466952698 164804488 30033180"/>
    </vehicle>
    <vehicle id="truck_080" type="truck_0_truck" depart="26716.00">
        <route edges="130539910#0 164798664 299677233#0 299677233#1 71403306#0 71403306#1 71403306#2 447703687 866820587"/>
    </vehicle>
    <vehicle id="truck_081" type="truck_0_truck" depart="26750.00">
        <route edges="71403306#0 71403306#1 71403306#2 976752207 467004337 976752206 447703689#0 447703689#1 467016769"/>
    </vehicle>
    <vehicle id="truck_082" type="truck_0_truck" depart="26754.00">
        <route edges="981035393 802455775#0 802455775#1 -300593294 -164798030 -981852375 70912182 700954730 8085083 164798664 299677233#0 299677233#1 164799269 299677237 48162003 299677230 300591205 48162006#0 48162006#1 130539911#0 48162004"/>
    </vehicle>
    <vehicle id="truck_085" type="truck_0_truck" depart="26763.00">
        <route edges="981035386 981035389 357939408#0 357939408#1 980735189 980735186 980735185 8085058 8085083 164798664 299677231 164798662#0 164798662#1 460105271 981852376 29045179 700954729 1189158487"/>
    </vehicle>
    <vehicle id="truck_086" type="truck_0_truck" depart="26776.00">
        <route edges="466952696 466952697 48162002 299677231 164798662#0 164798662#1 460105271 981852376 29045179"/>
    </vehicle>
    <vehicle id="truck_087" type="truck_0_truck" depart="26820.00">
        <route edges="467005944 299677237 1033965905 130627111#0 416234258 71403306#0"/>
    </vehicle>
    <vehicle id="truck_088" type="truck_0_truck" depart="26835.00">
        <route edges="164798030 300593294 -802455775#1 -802455775#0 802455775#0 802455775#1 -300593294 -164798030 -981852375 70912182 700954730 8085083 130539910#1 30033175 466952699 466952698 976752599 1044768246 1044768249 802057656 466952696 466952697 48162002"/>
    </vehicle>
    <vehicle id="truck_089" type="truck_0_truck" depart="26843.00">
        <route edges="29045179 700954730 8085083 164798664 299677233#0 299677233#1 71403306#0 71403306#1 71403306#2 447703687"/>
    </vehicle>
    <vehicle id="truck_090" type="truck_0_truck" depart="26918.00">
        <route edges="976752599 1044768246 1044768249 802057656 466952696 466952697 48162002 299677233#0 299677233#1 71403306#0 71403306#1 71403306#2 447703687 866820587 866820588"/>
    </vehicle>
    <vehicle id="truck_091" type="truck_0_truck" depart="26928.00">
        <route edges="1033965905 130627111#0 130627111#1 164798662#0 164798662#1 460105271 981852376 29045179 700954729 1189158487 976107160#0 976107160#1 976107159 981035388 -981035392 981035389 357939408#0"/>
    </vehicle>
    <vehicle id="truck_092" type="truck_0_truck" depart="26929.00">
        <route edges="299619486#1 299619486#2 362619311 866820586 866820585 976752206 447703689#0 447703689#1 467016769 467005944 299677237 1033965905 130627111#0 130627111#1 164798662#0 164798662#1 460105271 981852376 29045179 700954729 1189158487 976107160#0 976107160#1 976107159 981035388 981035391 981035393 802455775#0 802455775#1 -300593294 -164798030"/>
    </vehicle>
    <vehicle id="truck_093" type="truck_0_truck" depart="26931.00">
        <route edges="802057656 466952696 466952697 48162002 299677233#0 299677233#1 164799269 299677237 48162003"/>
    </vehicle>
    <vehicle id="truck_094" type="truck_0_truck" depart="26954.00">
        <route edges="164804488 30033180 1044768250 1044768246 1044768249 802057656 466952696 466952697 48162002 299677233#0 299677233#1 71403306#0 71403306#1 71403306#2"/>
    </vehicle>
    <vehicle id="truck_095" type="truck_0_truck" depart="27039.00">
        <route edges="466952696 466952697 48162002 299677231 164798662#0 164798662#1 460105271 981852376 29045179 700954729 1189158487 976107160#0 976107160#1 976107159 981035388 -981035392 981035389 357939408#0 357939408#1"/>
    </vehicle>
    <vehicle id="truck_096" type="truck_0_truck" depart="27057.00">
        <route edges="-300593294 -164798030 -981852375 981852375 164798030 300593294 -802455775#1 -802455775#0 -981035393"/>
    </vehicle>
    <vehicle id="truck_097" type="truck_0_truck" depart="27079.00">
        <route edges="976749368 976752206 447703689#0 447703689#1 467016769 467005944 299677237 1033965905 130627111#0 130627111#1 164798662#0 130539910#0 130539910#1 30033175 466952699 466952698 976752599"/>
    </vehicle>
    <vehicle id="truck_098" type="truck_0_truck" depart="27081.00">
        <route edges="466952696 466952697 48162002 299677233#0 299677233#1 71403306#0 71403306#1 71403306#2 447703687 866820587"/>
    </vehicle>
    <vehicle id="truck_099" type="truck_0_truck" depart="27093.00">
        <route edges="466974721 71403306#2 976752207 467004337 976752206 447703689#0 447703689#1 467016769 467005944 299677237 1033965905 130627111#0 130627111#1 130539908"/>
    </vehicle>
    <vehicle id="truck_0100" type="truck_0_truck" depart="27117.00">
        <route edges="1055432741 802057656 466952696 466952697 48162002 299677233#0 299677233#1 164799269 299677237 48162003 299677230"/>
    </vehicle>
    <vehicle id="truck_0101" type="truck_0_truck" depart="27221.00">
        <route edges="976752207 467004337 976752206 447703689#0 447703689#1 467016769 467005944 299677237 1033965905 130627111#0 130627111#1 164798662#0 164798662#1 460105271 981852376 29045179 700954729 1189158487 976107160#0 976107160#1 976107159 981035388 981035391 981035393 802455775#0 802455775#1"/>
    </vehicle>
    <vehicle id="truck_0102" type="truck_0_truck" depart="27244.00">
        <route edges="976107159 981035388 -981035392 981035389 357939408#0 357939408#1 980735189 980735186 980735185 8085058 8085083 164798664 299677233#0 299677233#1 71403306#0 71403306#1 71403306#2 976752207"/>
    </vehicle>
    <vehicle id="truck_0103" type="truck_0_truck" depart="27269.00">
        <route edges="164798662#0 130539910#0 164798664 299677233#0 299677233#1 164799269"/>
    </vehicle>
    <vehicle id="truck_0104" type="truck_0_truck" depart="27287.00">
        <route edges="1044768246 1044768249 802057656"/>
    </vehicle>
    <vehicle id="truck_0105" type="truck_0_truck" depart="27367.00">
        <route edges="976752206 447703689#0 447703689#1 467016769 467005944 299677237 48162003 299677230 300591205 48162006#0 416234260 300592594"/>
    </vehicle>
    <vehicle id="truck_0107" type="truck_0_truck" depart="27396.00">
        <route edges="980735189 980735186 980735185 8085058 8085083 164798664 299677231 164798662#0 164798662#1 460105271 981852376 29045179 700954729 1189158487 976107160#0 976107160#1 976107159"/>
    </vehicle>
    <vehicle id="truck_0108" type="truck_0_truck" depart="27407.00">
        <route edges="981035392 981035391 981035393 802455775#0 802455775#1 -300593294 -164798030 -981852375 70912182 700954730 8085083"/>
    </vehicle>
    <vehicle id="truck_0109" type="truck_0_truck" depart="27432.00">
        <route edges="976107160#1 976107159 981035388 -981035392 981035389 357939408#0 357939408#1 980735189 980735186 980735185 8085058 8085083 164798664 299677233#0 299677233#1 164799269 299677237 48162003 299677230 300591205 -48162005"/>
    </vehicle>
    <vehicle id="truck_0110" type="truck_0_truck" depart="27433.00">
        <route edges="71403306#2 976752207 467004337 976752206 447703689#0 447703689#1 467016769 467005944 299677237 1033965905 130627111#0 130627111#1 164798662#0 130539910#0 164798664 299677233#0"/>
    </vehicle>
    <vehicle id="truck_0111" type="truck_0_truck" depart="27461.00">
        <route edges="980735189 980735186 980735185 8085058"/>
    </vehicle>
    <vehicle id="truck_0112" type="truck_0_truck" depart="27466.00">
        <route edges="976107160#0 976107160#1 976107159 981035388 -981035392 981035389 357939408#0 357939408#1 980735189 980735186 980735185 8085058 8085083"/>
    </vehicle>
    <vehicle id="truck_0113" type="truck_0_truck" depart="27481.00">
        <route edges="29045179 700954729 1189158487 976107160#0 976107160#1 976107159 981035388 981035391 981035393 802455775#0"/>
    </vehicle>
    <vehicle id="truck_0114" type="truck_0_truck" depart="27498.00">
        <route edges="1044768249 802057656 466952696 466952697 48162002 299677231 164798662#0 164798662#1 460105271 981852376 29045179 700954729 1189158487 976107160#0"/>
    </vehicle>
    <vehicle id="truck_0115" type="truck_0_truck" depart="27499.00">
        <route edges="976107159 981035388 -981035392 981035389 357939408#0 357939408#1 980735189 980735186 980735185 8085058 8085083 164798664 299677231 164798662#0 164798662#1"/>
    </vehicle>
    <vehicle id="truck_0116" type="truck_0_truck" depart="27523.00">
        <route edges="866820585 976752206 447703689#0 447703689#1 467016769 467005944 299677237 1033965905 130627111#0 416234258"/>
    </vehicle>
    <vehicle id="truck_0117" type="truck_0_truck" depart="27564.00">
        <route edges="299677230 300591205 48162006#0 416234260 300592593 130627111#1 164798662#0 164798662#1 460105271 981852376 29045179 700954729 1189158487 976107160#0 976107160#1 976107159 981035388 981035391 981035393 802455775#0 802455775#1"/>
    </vehicle>
    <vehicle id="truck_0118" type="truck_0_truck" depart="27590.00">
        <route edges="164798662#1 460105271 981852376 29045179 700954729 1189158487 976107160#0 976107160#1 976107159 981035388 981035391 981035393 -443657025 -446855132"/>
    </vehicle>
    <vehicle id="truck_0119" type="truck_0_truck" depart="27594.00">
        <route edges="130627111#1 164798662#0 130539910#0 164798664 299677233#0"/>
    </vehicle>
    <vehicle id="truck_0120" type="truck_0_truck" depart="27613.00">
        <route edges="976107160#0 976107160#1 976107159 981035388 -981035392 981035389"/>
    </vehicle>
    <vehicle id="truck_0121" type="truck_0_truck" depart="27618.00">
        <route edges="299619486#1 299619486#2 362619311 866820586 866820585 976752206 447703689#0 447703689#1 467016769 467005944 299677237 48162003"/>
    </vehicle>
    <vehicle id="truck_0122" type="truck_0_truck" depart="27640.00">
        <route edges="300592593 130627111#1 164798662#0 164798662#1 460105271 981852376 29045179 700954729 1189158487 976107160#0 976107160#1 976107159 981035388 -981035392 -981035386 -70579088 70579088 981035386 981035392"/>
    </vehicle>
    <vehicle id="truck_0123" type="truck_0_truck" depart="27642.00">
        <route edges="460105271 981852376 29045179 700954729 1189158487 976107160#0 976107160#1 976107159 981035388 -981035392 -981035386 -70579088 70579088 981035386"/>
    </vehicle>
    <vehicle id="truck_0124" type="truck_0_truck" depart="27665.00">