<?xml version="1.0" encoding="UTF-8"?>

<!-- generated on 2025-04-24 17:38:52.123312 by randomTrips.py UNKNOWN
<configuration>
    <net-file value="data/net/san_lorenzo.net.xml"/>
    <output-trip-file value="output/runs/trips_truck_0.rou.xml"/>
    <prefix value="truck_0"/>
    <trip-attributes value="color=&quot;orange&quot; length=&quot;16.5&quot; accel=&quot;1.0&quot;"/>
    <vehicle-class value="truck"/>
    <edge-param value="traveltime"/>
    <speed-exponent value="0.5"/>
    <fringe-factor value="0.1"/>
    <min-distance value="50.0"/>
    <validate value="True"/>
    <begin value="25200.0"/>
    <end value="28800.0"/>
    <period value="4.0"/>
    <random-depart value="True"/>
</configuration>
-->

<!-- generated on 2025-04-24 17:38:52 by Eclipse SUMO duarouter Version 1.18.0
<configuration xmlns:xsi="http://www.w3.org/2001/XMLSchema-instance" xsi:noNamespaceSchemaLocation="http://sumo.dlr.de/xsd/duarouterConfiguration.xsd">

    <input>
        <net-file value="data/net/san_lorenzo.net.xml"/>
        <route-files value="output/runs/trips_truck_0.rou.xml"/>
    </input>

    <output>
        <output-file value="routes.rou.xml"/>
        <alternatives-output value="NUL"/>
    </output>

    <time>
        <begin value="25200.0"/>
        <end value="28800.0"/>
    </time>

    <report>
        <no-warnings value="true"/>
        <ignore-errors value="true"/>
        <no-step-log value="true"/>
    </report>

</configuration>
-->

<routes xmlns:xsi="http://www.w3.org/2001/XMLSchema-instance" xsi:noNamespaceSchemaLocation="http://sumo.dlr.de/xsd/routes_file.xsd">
    <vType id="truck_0_truck" length="16.50" vClass="truck" color="orange" accel="1.0"/>
    <vehicle id="truck_00" type="truck_0_truck" depart="25201.00">
        <route edges="29045179 700954730 8085083 130539910#1 30033175 466952699 466952698 976752599"/>
    </vehicle>
    <vehicle id="truck_02" type="truck_0_truck" depart="25206.00">
        <route edges="416234258 71403306#0"/>
    </vehicle>
    <vehicle id="truck_03" type="truck_0_truck" depart="25208.00">
        <route edges="1033965905 130627111#0 130627111#1 164798662#0 130539910#0 130539910#1 30033175 466952699 466952698 976752599"/>
    </vehicle>
    <vehicle id="truck_04" type="truck_0_truck" depart="25213.00">
        <route edges="164798662#1 460105271 981852376 29045179 700954730 8085083 130539910#1 30033175 466952699 466952698 976752599 1044768246"/>
    </vehicle>
    <vehicle id="truck_05" type="truck_0_truck" depart="25214.00">
        <route edges="976752599 1044768246 1044768249 802057656 466952696 466952697 48162002 299677233#0 299677233#1 71403306#0 71403306#1 71403306#2 976752207 467004337 -976749368"/>
    </vehicle>
    <vehicle id="truck_06" type="truck_0_truck" depart="25222.00">
        <route edges="-802455775#1 -802455775#0 802455775#0 802455775#1 -300593294 -164798030 -981852375 70912182 700954730 8085083 164798664 299677233#0 299677233#1 164799269"/>
    </vehicle>
    <vehicle id="truck_07" type="truck_0_truck" depart="25224.00">
        <route edges="8085083 164798664 299677233#0 299677233#1 71403306#0 71403306#1 71403306#2 976752207 467004337 976752206 447703689#0 447703689#1 467016769 467005944"/>
    </vehicle>
    <vehicle id="truck_08" type="truck_0_truck" depart="25226.00">
        <route edges="164798664 299677233#0 299677233#1 164799269 299677237 48162003 299677230 300591205 48162006#0 416234260"/>
    </vehicle>
    <vehicle id="truck_010" type="truck_0_truck" depart="25232.00">
        <route edges="416234258 164799269"/>
    </vehicle>
    <vehicle id="truck_011" type="truck_0_truck" depart="25238.00">
        <route edges="30033180 1044768250 1044768246 1044768249 802057656 466952696 466952697 48162002 299677233#0 299677233#1 71403306#0 71403306#1 71403306#2 976752207 467004337"/>
    </vehicle>
    <vehicle id="truck_012" type="truck_0_truck" depart="25239.00">
        <route edges="71403306#2 976752207 467004337 976752206 447703689#0 447703689#1 467016769 467005944 299677237 48162003 299677230 300591205 48162006#0 48162006#1 130539911#0 130539911#1"/>
    </vehicle>
    <vehicle id="truck_013" type="truck_0_truck" depart="25247.00">
        <route edges="299677231 164798662#0 130539910#0 130539910#1 30033175 466952699 466952698"/>
    </vehicle>
    <vehicle id="truck_014" type="truck_0_truck" depart="25260.00">
        <route edges="976752206 447703689#0 447703689#1 467016769 467005944 299677237 1033965905 130627111#0 130627111#1 164798662#0 130539910#0 130539910#1 30033175 466952699 466952698"/>
    </vehicle>
    <vehicle id="truck_018" type="truck_0_truck" depart="25296.00">
        <route edges="164798664 299677233#0 299677233#1 164799269 299677237 48162003 299677230 300591205 48162006#0"/>
    </vehicle>
    <vehicle id="truck_023" type="truck_0_truck" depart="25310.00">
        <route edges="1044768246 1044768249 802057656 466952696 466952697 48162002"/>
    </vehicle>
    <vehicle id="truck_024" type="truck_0_truck" depart="25311.00">
        <route edges="-300593294 -164798030 -981852375 70912182 700954730 8085083 164798664 299677233#0 299677233#1 164799269 299677237 48162003 299677230 300591205 48162006#0 416234260 300592594"/>
    </vehicle>
    <vehicle id="truck_026" type="truck_0_truck" depart="25318.00">
        <route edges="30033175 466952699 466952698 976752599 1044768246 1044768249 802057656 466952696 466952697 48162002 299677233#0 299677233#1 71403306#0 71403306#1 71403306#2 447703687 866820587 866820588"/>
    </vehicle>
    <vehicle id="truck_027" type="truck_0_truck" depart="25322.00">
        <route edges="416234258 164799269 299677237 48162003 299677230 300591205 48162006#0 48162006#1 130539911#0"/>
    </vehicle>
    <vehicle id="truck_028" type="truck_0_truck" depart="25328.00">
        <route edges="130627111#0 416234258 71403306#0 71403306#1 71403306#2 976752207 467004337 976752206 447703689#0 447703689#1"/>
    </vehicle>
    <vehicle id="truck_029" type="truck_0_truck" depart="25330.00">
        <route edges="48162003 299677230 300591205 48162006#0 416234260 300592593 416234258 71403306#0 71403306#1 71403306#2 976752207 467004337 976752206 447703689#0 447703689#1 467016769 467005944"/>
    </vehicle>
    <vehicle id="truck_032" type="truck_0_truck" depart="25356.00">
        <route edges="466952699 466952698 976752599 1044768246 1044768249 802057656 466952696 466952697 48162002 299677233#0"/>
    </vehicle>
    <vehicle id="truck_033" type="truck_0_truck" depart="25358.00">
        <route edges="164799269 299677237 1033965905 130627111#0 416234258 71403306#0 71403306#1 71403306#2 976752207 467004337 976752206"/>
    </vehicle>
    <vehicle id="truck_034" type="truck_0_truck" depart="25362.00">
        <route edges="299619486#2 362619311"/>
    </vehicle>
    <vehicle id="truck_035" type="truck_0_truck" depart="25363.00">
        <route edges="71403306#1 71403306#2 976752207 467004337 976752206 447703689#0 447703689#1 467016769 467005944 299677237 1033965905 130627111#0 130627111#1 164798662#0 130539910#0 130539910#1 30033175 466952699 466952698 976752599 1044768246 1044768249 802057656 466952696 466952697"/>
    </vehicle>
    <vehicle id="truck_036" type="truck_0_truck" depart="25371.00">
        <route edges="48162004 300591203 300592593 130627111#1 164798662#0 130539910#0 164798664 299677233#0 299677233#1"/>
    </vehicle>
    <vehicle id="truck_038" type="truck_0_truck" depart="25380.00">
        <route edges="416234260 300592593 416234258 164799269 299677237"/>
    </vehicle>
    <vehicle id="truck_039" type="truck_0_truck" depart="25381.00">
        <route edges="164799269 299677237 1033965905 130627111#0 130627111#1 164798662#0 164798662#1 460105271 981852376 29045179"/>
    </vehicle>
    <vehicle id="truck_040" type="truck_0_truck" depart="25387.00">
        <route edges="466974721 71403306#2 447703687 866820587"/>
    </vehicle>
    <vehicle id="truck_041" type="truck_0_truck" depart="25389.00">
        <route edges="466952696 466952697 48162002 299677233#0 299677233#1 71403306#0 71403306#1 71403306#2 976752207 467004337 976752206 447703689#0 447703689#1"/>
    </vehicle>
    <vehicle id="truck_042" type="truck_0_truck" depart="25392.00">
        <route edges="164798030 300593294 -802455775#1 -802455775#0 802455775#0 802455775#1 -300593294 -164798030 -981852375 70912182 700954730 8085083 164798664"/>
    </vehicle>
    <vehicle id="truck_043" type="truck_0_truck" depart="25405.00">
        <route edges="300592593 130627111#1 164798662#0 130539910#0 130539910#1 30033175 466952699 466952698 976752599 1044768246 1044768249 802057656 466952696"/>
    </vehicle>
    <vehicle id="truck_044" type="truck_0_truck" depart="25405.00">
        <route edges="164798664 299677233#0 299677233#1 164799269 299677237 48162003 299677230 300591205 48162006#0 416234260"/>
    </vehicle>
    <vehicle id="truck_046" type="truck_0_truck" depart="25407.00">
        <route edges="-300593294 -164798030 -981852375 70912182 700954730 8085083 164798664 299677233#0 299677233#1 164799269 299677237 48162003 299677230"/>
    </vehicle>
    <vehicle id="truck_047" type="truck_0_truck" depart="25408.00">
        <route edges="300592593 130627111#1 164798662#0 130539910#0 164798664"/>
    </vehicle>
    <vehicle id="truck_048" type="truck_0_truck" depart="25421.00">
        <route edges="48162004 300591203 300592593 130627111#1 164798662#0 130539910#0 130539910#1 30033175 466952699 466952698 164804488 30033180"/>
    </vehicle>
    <vehicle id="truck_049" type="truck_0_truck" depart="25429.00">
        <route edges="466952696 466952697 48162002 299677233#0 299677233#1 164799269 299677237"/>
    </vehicle>
    <vehicle id="truck_050" type="truck_0_truck" depart="25432.00">
        <route edges="981852376 29045179 700954730 8085083 130539910#1 30033175 466952699 466952698 976752599 1044768246 1044768249 802057656 466952696"/>
    </vehicle>
    <vehicle id="truck_052" type="truck_0_truck" depart="25437.00">
        <route edges="700954730 8085083 164798664 299677233#0"/>
    </vehicle>
    <vehicle id="truck_053" type="truck_0_truck" depart="25439.00">
        <route edges="71403306#0 71403306#1 71403306#2 976752207 467004337 976752206 447703689#0 447703689#1 467016769 467005944 299677237 1033965905 130627111#0 130627111#1 164798662#0 130539910#0 130539910#1 30033175 466952699 466952698 976752599"/>
    </vehicle>
    <vehicle id="truck_055" type="truck_0_truck" depart="25441.00">
        <route edges="71403306#0 71403306#1 71403306#2 976752207 467004337 976752206 447703689#0 447703689#1 467016769 467005944 299677237 1033965905 130627111#0 130627111#1 164798662#0 164798662#1 460105271 981852376 29045179"/>
    </vehicle>
    <vehicle id="truck_056" type="truck_0_truck" depart="25448.00">
        <route edges="466952699 466952698 976752599 1044768246 1044768249 802057656 466952696 466952697 48162002 299677233#0 299677233#1 71403306#0 71403306#1"/>
    </vehicle>
    <vehicle id="truck_058" type="truck_0_truck" depart="25455.00">
        <route edges="8085058 8085083 164798664 299677231"/>
    </vehicle>
    <vehicle id="truck_059" type="truck_0_truck" depart="25460.00">
        <route edges="30033175 466952699 466952698 976752599 1044768246 1044768249 802057656 466952696 466952697 48162002 299677231"/>
    </vehicle>
    <vehicle id="truck_061" type="truck_0_truck" depart="25463.00">
        <route edges="-981852375 70912182 700954730 8085083 164798664 299677233#0 299677233#1 164799269 299677237 1033965905"/>
    </vehicle>
    <vehicle id="truck_062" type="truck_0_truck" depart="25471.00">
        <route edges="299677230 300591205 48162006#0 416234260 300592593 416234258 71403306#0 71403306#1 71403306#2 976752207"/>
    </vehicle>
    <vehicle id="truck_063" type="truck_0_truck" depart="25476.00">
        <route edges="48162002 299677233#0 299677233#1 71403306#0 71403306#1"/>
    </vehicle>
    <vehicle id="truck_065" type="truck_0_truck" depart="25480.00">
        <route edges="299677230 300591205 48162006#0 416234260"/>
    </vehicle>
    <vehicle id="truck_070" type="truck_0_truck" depart="25486.00">
        <route edges="48162005 48162006#0 48162006#1 130539911#0"/>
    </vehicle>
    <vehicle id="truck_071" type="truck_0_truck" depart="25490.00">
        <route edges="802057656 466952696 466952697 48162002 299677231 164798662#0 130539910#0 130539910#1 30033175 466952699 466952698 976752599"/>
    </vehicle>
    <vehicle id="truck_072" type="truck_0_truck" depart="25490.00">
        <route edges="1044768250 1044768246 1044768249 802057656 466952696 466952697 48162002 299677233#0 299677233#1 164799269"/>
    </vehicle>
    <vehicle id="truck_073" type="truck_0_truck" depart="25492.00">
        <route edges="466952696 466952697 48162002 299677233#0 299677233#1 164799269 299677237 48162003 299677230 300591205 48162006#0 416234260 300592594"/>
    </vehicle>
    <vehicle id="truck_074" type="truck_0_truck" depart="25497.00">
        <route edges="466974721 71403306#2 976752207 467004337 976752206 447703689#0 447703689#1 467016769 467005944"/>
    </vehicle>
    <vehicle id="truck_075" type="truck_0_truck" depart="25498.00">
        <route edges="71403306#2 976752207 467004337 976752206 447703689#0 447703689#1 467016769 467005944 299677237 1033965905 130627111#0 130627111#1 130539908 300591203"/>
    </vehicle>
    <vehicle id="truck_078" type="truck_0_truck" depart="25508.00">
        <route edges="466952697 48162002 299677233#0 299677233#1 164799269 299677237 1033965905"/>
    </vehicle>
    <vehicle id="truck_080" type="truck_0_truck" depart="25522.00">
        <route edges="71403306#1 71403306#2 976752207 467004337 976752206 447703689#0 447703689#1 467016769"/>
    </vehicle>
    <vehicle id="truck_081" type="truck_0_truck" depart="25522.00">
        <route edges="164804488 30033180 1044768250 1044768246 1044768249"/>
    </vehicle>
    <vehicle id="truck_082" type="truck_0_truck" depart="25526.00">
        <route edges="164798664 299677231 164798662#0 130539910#0 130539910#1 30033175 466952699 466952698 976752599 1044768246 1044768249 802057656 466952696"/>
    </vehicle>
    <vehicle id="truck_083" type="truck_0_truck" depart="25528.00">
        <route edges="130539911#0 48162004 300591203 300592593"/>
    </vehicle>
    <vehicle id="truck_084" type="truck_0_truck" depart="25530.00">
        <route edges="48162006#0 416234260 300592593 416234258"/>
    </vehicle>
    <vehicle id="truck_085" type="truck_0_truck" depart="25535.00">
        <route edges="-802455775#1 -802455775#0 802455775#0 802455775#1 -300593294 -164798030 -981852375 70912182 700954730 8085083 164798664 299677233#0 299677233#1 164799269 299677237 48162003 299677230"/>
    </vehicle>
    <vehicle id="truck_087" type="truck_0_truck" depart="25547.00">
        <route edges="1044768246 1044768249 802057656 466952696 466952697 48162002 299677231 164798662#0 130539910#0 164798664"/>
    </vehicle>
    <vehicle id="truck_090" type="truck_0_truck" depart="25572.00">
        <route edges="164798030 300593294 -802455775#1 -802455775#0 802455775#0 802455775#1 -300593294 -164798030 -981852375 70912182 700954729 1189158487"/>
    </vehicle>
    <vehicle id="truck_091" type="truck_0_truck" depart="25578.00">
        <route edges="164798662#1 460105271 981852376 29045179 700954730 8085083 130539910#1"/>
    </vehicle>
    <vehicle id="truck_092" type="truck_0_truck" depart="25579.00">
        <route edges="164804488 30033180 1044768250 1044768246 1044768249 802057656 466952696 466952697 48162002 299677231 164798662#0 130539910#0 130539910#1"/>
    </vehicle>
    <vehicle id="truck_095" type="truck_0_truck" depart="25583.00">
        <route edges="416234258 164799269 299677237 1033965905 130627111#0 130627111#1 164798662#0 130539910#0 164798664 299677231"/>
    </vehicle>
    <vehicle id="truck_096" type="truck_0_truck" depart="25586.00">
        <route edges="300592593 130627111#1 164798662#0 164798662#1 460105271 981852376 29045179"/>
    </vehicle>
    <vehicle id="truck_098" type="truck_0_truck" depart="25597.00">
        <route edges="466974721 71403306#2 447703687 866820587 866820588"/>
    </vehicle>
    <vehicle id="truck_099" type="truck_0_truck" depart="25601.00">
        <route edges="71403306#0 71403306#1 71403306#2 976752207 467004337 466974721"/>
    </vehicle>
    <vehicle id="truck_0102" type="truck_0_truck" depart="25613.00">
        <route edges="466952699 466952698 976752599 1044768246 1044768249 802057656 466952696 466952697 48162002 299677233#0 299677233#1 164799269 299677237 48162003 299677230 300591205 -48162005"/>
    </vehicle>
    <vehicle id="truck_0104" type="truck_0_truck" depart="25619.00">
        <route edges="466952698 976752599 1044768246 1044768249 802057656 466952696 466952697 48162002 299677233#0 299677233#1 71403306#0 71403306#1"/>
    </vehicle>
    <vehicle id="truck_0105" type="truck_0_truck" depart="25621.00">
        <route edges="130627111#0 416234258 71403306#0 71403306#1 71403306#2 976752207 467004337 976752206 447703689#0 447703689#1"/>
    </vehicle>
    <vehicle id="truck_0106" type="truck_0_truck" depart="25624.00">
        <route edges="357939408#1 980735189 980735186 980735185 8085058 8085083 164798664 299677231 164798662#0 164798662#1 460105271 981852376 29045179"/>
    </vehicle>
    <vehicle id="truck_0110" type="truck_0_truck" depart="25642.00">
        <route edges="130539911#1 130539910#0 164798664 299677233#0 299677233#1 164799269 299677237 48162003 299677230 300591205 48162006#0 416234260 300592594"/>
    </vehicle>
    <vehicle id="truck_0112" type="truck_0_truck" depart="25647.00">
        <route edges="300592593 416234258 71403306#0 71403306#1"/>
    </vehicle>
    <vehicle id="truck_0113" type="truck_0_truck" depart="25649.00">
        <route edges="-802455775#1 -802455775#0 802455775#0 802455775#1 -300593294 -164798030 -981852375 70912182 700954730 8085083 130539910#1 30033175 466952699 466952698 164804488 30033180 1044768250"/>
    </vehicle>
    <vehicle id="truck_0114" type="truck_0_truck" depart="25656.00">
        <route edges="164799269 299677237 1033965905 130627111#0 130627111#1 164798662#0 164798662#1 460105271 981852376 29045179 700954729 1189158487"/>
    </vehicle>
    <vehicle id="truck_0116" type="truck_0_truck" depart="25658.00">
        <route edges="802455775#1 -300593294 -164798030"/>
    </vehicle>
    <vehicle id="truck_0117" type="truck_0_truck" depart="25658.00">
        <route edges="866820586 866820585 976752206 447703689#0 447703689#1 467016769 467005944 299677237 1033965905 130627111#0 416234258"/>
    </vehicle>
    <vehicle id="truck_0118" type="truck_0_truck" depart="25669.00">
        <route edges="1033965905 130627111#0 416234258 71403306#0 71403306#1 71403306#2 976752207 467004337 976752206 447703689#0 447703689#1"/>
    </vehicle>
    <vehicle id="truck_0119" type="truck_0_truck" depart="25672.00">
        <route edges="467016769 467005944 299677237 1033965905 130627111#0 416234258 71403306#0 71403306#1 71403306#2 447703687"/>
    </vehicle>
    <vehicle id="truck_0120" type="truck_0_truck" depart="25672.00">
        <route edges="357939408#1 980735189 980735186 980735185 8085058 8085083 164798664 299677233#0 299677233#1 164799269 299677237 1033965905"/>
    </vehicle>
    <vehicle id="truck_0121" type="truck_0_truck" depart="25673.00">
        <route edges="164804488 30033180 1044768250 1044768246 1044768249 802057656 466952696 466952697 48162002 299677231 130539908"/>
    </vehicle>
    <vehicle id="truck_0122" type="truck_0_truck" depart="25691.00">
        <route edges="299677230 300591205 48162006#0 416234260 300592593 416234258 71403306#0 71403306#1 71403306#2 447703687 866820587"/>
    </vehicle>
    <vehicle id="truck_0123" type="truck_0_truck" depart="25695.00">
        <route edges="416234260 300592594 300591205 -48162005"/>
    </vehicle>
    <vehicle id="truck_0126" type="truck_0_truck" depart="25711.00">
        <route edges="-300593294 -164798030 -981852375 70912182 700954730 8085083 164798664 299677233#0 299677233#1 164799269 299677237 48162003 299677230 300591205 48162006#0 416234260 300592593"/>
    </vehicle>
    <vehicle id="truck_0127" type="truck_0_truck" depart="25715.00">
        <route edges="164798662#1 460105271 981852376 29045179 700954730 8085083"/>
    </vehicle>
    <vehicle id="truck_0129" type="truck_0_truck" depart="25722.00">
        <route edges="48162002 299677233#0 299677233#1 164799269 299677237 48162003 299677230 300591205 48162006#0 48162006#1 130539911#0"/>
    </vehicle>
    <vehicle id="truck_0130" type="truck_0_truck" depart="25722.00">
        <route edges="976752206 447703689#0 447703689#1 467016769 467005944 299677237 48162003 299677230"/>
    </vehicle>
    <vehicle id="truck_0131" type="truck_0_truck" depart="25725.00">
        <route edges="48162006#1 130539911#0 48162004 300591203 300592594"/>
    </vehicle>
    <vehicle id="truck_0132" type="truck_0_truck" depart="25735.00">
        <route edges="416234260 300592593 416234258"/>
    </vehicle>
    <vehicle id="truck_0133" type="truck_0_truck" depart="25736.00">
        <route edges="362619311 866820586 866820585 976752206 447703689#0 447703689#1 467016769 467005944 299677237 1033965905 130627111#0 130627111#1 164798662#0 130539910#0 130539910#1"/>
    </vehicle>
    <vehicle id="truck_0134" type="truck_0_truck" depart="25741.00">
        <route edges="164798030 300593294 -802455775#1 -802455775#0 802455775#0 802455775#1 -300593294 -164798030 -981852375 70912182 700954730 8085083 164798664 299677233#0 299677233#1 71403306#0 71403306#1 71403306#2 976752207 467004337 466974721"/>
    </vehicle>
    <vehicle id="truck_0135" type="truck_0_truck" depart="25742.00">
        <route edges="71403306#0 71403306#1 71403306#2 976752207 467004337 976752206 447703689#0 447703689#1 467016769 467005944 299677237 1033965905 130627111#0 130627111#1 164798662#0 130539910#0"/>
    </vehicle>
    <vehicle id="truck_0136" type="truck_0_truck" depart="25746.00">
        <route edges="1044768246 1044768249 802057656 466952696 466952697 48162002 299677233#0 299677233#1 71403306#0 71403306#1 71403306#2"/>
    </vehicle>
    <vehicle id="truck_0137" type="truck_0_truck" depart="25750.00">
        <route edges="866820585 976752206 447703689#0 447703689#1 467016769 467005944 299677237 1033965905 130627111#0 130627111#1 164798662#0 130539910#0 164798664 299677233#0 299677233#1"/>
    </vehicle>
    <vehicle id="truck_0138" type="truck_0_truck" depart="25755.00">
        <route edges="790589568#2 790589568#3 1055432741 802057656 466952696 466952697 48162002 299677231 164798662#0 130539910#0 130539910#1 30033175 466952699 466952698 164804488"/>
    </vehicle>
    <vehicle id="truck_0139" type="truck_0_truck" depart="25766.00">
        <route edges="-164798030 -981852375 70912182 700954730"/>
    </vehicle>
    <vehicle id="truck_0140" type="truck_0_truck" depart="25766.00">
        <route edges="8085083 130539910#1 30033175 466952699 466952698"/>
    </vehicle>
    <vehicle id="truck_0142" type="truck_0_truck" depart="25771.00">
        <route edges="362619311 866820586 866820585 976752206 447703689#0 447703689#1 467016769 467005944 299677237 48162003 299677230 300591205 48162006#0 416234260"/>
    </vehicle>
    <vehicle id="truck_0143" type="truck_0_truck" depart="25774.00">
        <route edges="299677233#1 71403306#0 71403306#1"/>
    </vehicle>
    <vehicle id="truck_0144" type="truck_0_truck" depart="25785.00">
        <route edges="300591203 300592593 416234258 71403306#0 71403306#1 71403306#2 976752207 467004337 976752206"/>
    </vehicle>
    <vehicle id="truck_0146" type="truck_0_truck" depart="25804.00">
        <route edges="164798664 299677231 130539908 300591203"/>
    </vehicle>
    <vehicle id="truck_0147" type="truck_0_truck" depart="25806.00">
        <route edges="866820585 976752206 447703689#0 447703689#1 467016769 467005944 299677237 48162003 299677230 300591205 48162006#0 416234260 300592593"/>
    </vehicle>
    <vehicle id="truck_0148" type="truck_0_truck" depart="25810.00">
        <route edges="299677233#0 299677233#1 164799269 299677237 1033965905 130627111#0 416234258"/>
    </vehicle>
    <vehicle id="truck_0151" type="truck_0_truck" depart="25826.00">
        <route edges="48162003 299677230 300591205 48162006#0 48162006#1 130539911#0"/>
    </vehicle>
    <vehicle id="truck_0152" type="truck_0_truck" depart="25826.00">
        <route edges="980735185 8085058 8085083 164798664 299677231 130539908"/>
    </vehicle>
    <vehicle id="truck_0153" type="truck_0_truck" depart="25833.00">
        <route edges="980735185 8085058 8085083 164798664 299677233#0 299677233#1"/>
    </vehicle>
    <vehicle id="truck_0154" type="truck_0_truck" depart="25834.00">
        <route edges="1055432741 802057656 466952696 466952697 48162002 299677231 164798662#0 164798662#1 460105271 981852376 29045179 700954730 8085083"/>
    </vehicle>
    <vehicle id="truck_0155" type="truck_0_truck" depart="25836.00">
        <route edges="1055432741 802057656 466952696 466952697 48162002 299677231 164798662#0 164798662#1 460105271 981852376 29045179 700954729 1189158487 976107160#0"/>
    </vehicle>
    <vehicle id="truck_0156" type="truck_0_truck" depart="25836.00">
        <route edges="-300593294 -164798030 -981852375 70912182 700954730 8085083 130539910#1"/>
    </vehicle>
    <vehicle id="truck_0158" type="truck_0_truck" depart="25846.00">
        <route edges="1044768249 802057656 466952696 466952697 48162002 299677233#0 299677233#1 71403306#0 71403306#1 71403306#2"/>
    </vehicle>
    <vehicle id="truck_0159" type="truck_0_truck" depart="25847.00">
        <route edges="164804488 30033180 1044768250 1044768246 1044768249 802057656 466952696 466952697 48162002 299677233#0 299677233#1 71403306#0 71403306#1 71403306#2 976752207 467004337 976752206 447703689#0 447703689#1 467016769"/>
    </vehicle>
    <vehicle id="truck_0160" type="truck_0_truck" depart="25851.00">
        <route edges="300592593 130627111#1 164798662#0 130539910#0 130539910#1 30033175 466952699 466952698 976752599 1044768246 1044768249"/>
    </vehicle>
    <vehicle id="truck_0161" type="truck_0_truck" depart="25852.00">
        <route edges="299677233#1 164799269 299677237 48162003 299677230 300591205 48162006#0 48162006#1 130539911#0 48162004"/>
    </vehicle>
    <vehicle id="truck_0162" type="truck_0_truck" depart="25853.00">
        <route edges="460105271 981852376 29045179 700954730 8085083 130539910#1 30033175 466952699 466952698 976752599"/>
    </vehicle>
    <vehicle id="truck_0163" type="truck_0_truck" depart="25855.00">
        <route edges="467016769 467005944 299677237 1033965905 130627111#0 416234258 71403306#0 71403306#1 71403306#2 447703687 866820587 866820588"/>
    </vehicle>
    <vehicle id="truck_0164" type="truck_0_truck" depart="25861.00">
        <route edges="416234260 300592593 130627111#1 164798662#0 164798662#1 460105271"/>
    </vehicle>
    <vehicle id="truck_0165" type="truck_0_truck" depart="25861.00">
        <route edges="467005944 299677237 1033965905 130627111#0 130627111#1 164798662#0 130539910#0 164798664"/>
    </vehicle>
    <vehicle id="truck_0166" type="truck_0_truck" depart="25865.00">
        <route edges="48162005 48162006#0 416234260 300592593 416234258 164799269 299677237 48162003 299677230"/>
    </vehicle>
    <vehicle id="truck_0167" type="truck_0_truck" depart="25866.00">
        <route edges="164798662#1 460105271 981852376 29045179 700954730 8085083 130539910#1 30033175 466952699 466952698 164804488 30033180 1044768250"/>
    </vehicle>
    <vehicle id="truck_0168" type="truck_0_truck" depart="25869.00">
        <route edges="980735189 980735186 980735185 8085058 8085083 164798664 299677233#0 299677233#1 71403306#0 71403306#1"/>
    </vehicle>
    <vehicle id="truck_0170" type="truck_0_truck" depart="25876.00">
        <route edges="130539911#1 130539910#0 164798664 299677231"/>
    </vehicle>
    <vehicle id="truck_0172" type="truck_0_truck" depart="25881.00">
        <route edges="1033965905 130627111#0 130627111#1 164798662#0 130539910#0 130539910#1 30033175"/>
    </vehicle>
    <vehicle id="truck_0173" type="truck_0_truck" depart="25895.00">
        <route edges="357939408#0 357939408#1 980735189 980735186 980735185 8085058 8085083 164798664"/>
    </vehicle>
    <vehicle id="truck_0175" type="truck_0_truck" depart="25912.00">
        <route edges="467004337 976752206 447703689#0 447703689#1 467016769 467005944 299677237 1033965905 130627111#0 130627111#1 130539908 300591203"/>
    </vehicle>
    <vehicle id="truck_0176" type="truck_0_truck" depart="25920.00">
        <route edges="48162005 48162006#0 416234260 300592593 416234258 71403306#0 71403306#1 71403306#2 447703687"/>
    </vehicle>
    <vehicle id="truck_0177" type="truck_0_truck" depart="25925.00">
        <route edges="466952698 976752599 1044768246 1044768249 802057656 466952696 466952697 48162002 299677231 164798662#0 130539910#0 164798664"/>
    </vehicle>
    <vehicle id="truck_0178" type="truck_0_truck" depart="25931.00">
        <route edges="48162002 299677233#0 299677233#1 164799269 299677237 1033965905 130627111#0 416234258"/>
    </vehicle>
    <vehicle id="truck_0179" type="truck_0_truck" depart="25931.00">
        <route edges="48162004 300591203 300592593 416234258 71403306#0 71403306#1 71403306#2 447703687 866820587 866820588"/>
    </vehicle>
    <vehicle id="truck_0180" type="truck_0_truck" depart="25934.00">
        <route edges="416234258 164799269 299677237 48162003 299677230"/>
    </vehicle>
    <vehicle id="truck_0181" type="truck_0_truck" depart="25944.00">
        <route edges="466952696 466952697 48162002 299677231 164798662#0 130539910#0 130539910#1 30033175 466952699 466952698 976752599 1044768246"/>
    </vehicle>
    <vehicle id="truck_0185" type="truck_0_truck" depart="25978.00">
        <route edges="299677231 164798662#0 164798662#1 460105271 981852376"/>
    </vehicle>