<?xml version="1.0" encoding="UTF-8"?>

<!-- generated on 2025-04-20 00:11:58 by Eclipse SUMO netedit Version 1.18.0
<configuration xmlns:xsi="http://www.w3.org/2001/XMLSchema-instance" xsi:noNamespaceSchemaLocation="http://sumo.dlr.de/xsd/neteditConfiguration.xsd">

    <input>
        <sumo-net-file value="san_lorenzo.net.xml"/>
    </input>

    <output>
        <output-file value="san_lorenzo.net.xml"/>
    </output>

    <processing>
        <geometry.min-radius.fix.railways value="false"/>
        <geometry.max-grade.fix value="false"/>
        <offset.disable-normalization value="true"/>
        <lefthand value="0"/>
    </processing>

    <junctions>
        <no-turnarounds value="true"/>
        <junctions.corner-detail value="5"/>
        <junctions.limit-turn-speed value="5.50"/>
        <rectangular-lane-cut value="0"/>
    </junctions>

    <pedestrian>
        <walkingareas value="0"/>
    </pedestrian>

</configuration>
-->

<net version="1.16" junctionCornerDetail="5" limitTurnSpeed="5.50" xmlns:xsi="http://www.w3.org/2001/XMLSchema-instance" xsi:noNamespaceSchemaLocation="http://sumo.dlr.de/xsd/net_file.xsd">

    <location netOffset="-445640.24,2805111.31" convBoundary="0.00,0.00,5559.09,3886.86" origBoundary="-57.540154,-25.361810,-57.484964,-25.326696" projParameter="+proj=utm +zone=21 +ellps=WGS84 +datum=WGS84 +units=m +no_defs"/>

    <type id="highway.primary" priority="12" numLanes="2" speed="27.78" disallow="tram rail_urban rail rail_electric rail_fast ship" oneway="0"/>
    <type id="highway.secondary" priority="11" numLanes="1" speed="27.78" disallow="tram rail_urban rail rail_electric rail_fast ship" oneway="0"/>
    <type id="highway.trunk" priority="13" numLanes="2" speed="27.78" disallow="pedestrian bicycle tram rail_urban rail rail_electric rail_fast ship" oneway="0"/>

    <edge id=":11042368249_0" function="internal">
        <lane id=":11042368249_0_0" index="0" disallow="pedestrian bicycle tram rail_urban rail rail_electric rail_fast ship" speed="16.67" length="0.30" shape="4280.43,2241.05 4280.72,2240.98"/>
        <lane id=":11042368249_0_1" index="1" disallow="pedestrian bicycle tram rail_urban rail rail_electric rail_fast ship" speed="16.67" length="0.30" shape="4281.21,2244.16 4281.51,2244.08"/>
        <lane id=":11042368249_0_2" index="2" disallow="pedestrian bicycle tram rail_urban rail rail_electric rail_fast ship" speed="16.67" length="0.30" shape="4282.00,2247.26 4282.29,2247.19"/>
    </edge>
    <edge id=":11042368250_0" function="internal">
        <lane id=":11042368250_0_0" index="0" disallow="pedestrian bicycle tram rail_urban rail rail_electric rail_fast ship" speed="16.67" length="0.30" shape="4323.89,2247.41 4323.60,2247.48"/>
        <lane id=":11042368250_0_1" index="1" disallow="pedestrian bicycle tram rail_urban rail rail_electric rail_fast ship" speed="16.67" length="0.30" shape="4323.13,2244.30 4322.83,2244.38"/>
        <lane id=":11042368250_0_2" index="2" disallow="pedestrian bicycle tram rail_urban rail rail_electric rail_fast ship" speed="16.67" length="0.30" shape="4322.36,2241.20 4322.07,2241.27"/>
    </edge>
    <edge id=":1241489782_0" function="internal">
        <lane id=":1241489782_0_0" index="0" disallow="pedestrian bicycle tram rail_urban rail rail_electric rail_fast ship" speed="6.52" length="9.03" shape="4840.54,2124.44 4839.59,2122.16 4838.14,2120.72 4836.18,2120.13 4833.72,2120.39"/>
    </edge>
    <edge id=":1241489782_1" function="internal">
        <lane id=":1241489782_1_0" index="0" disallow="tram rail_urban rail rail_electric rail_fast ship" speed="11.11" length="13.41" shape="4840.54,2124.44 4839.66,2121.04 4838.94,2117.92 4838.41,2114.76 4838.11,2111.28"/>
    </edge>
    <edge id=":1241489782_2" function="internal">
        <lane id=":1241489782_2_0" index="0" disallow="pedestrian bicycle tram rail_urban rail rail_electric rail_fast ship" speed="7.02" length="10.80" shape="4847.95,2115.23 4845.39,2116.31 4843.82,2118.07 4843.24,2120.52 4843.64,2123.64"/>
    </edge>
    <edge id=":1241489782_3" function="internal">
        <lane id=":1241489782_3_0" index="0" disallow="pedestrian bicycle tram rail_urban rail rail_electric rail_fast ship" speed="13.89" length="15.18" shape="4847.95,2115.23 4843.66,2116.53 4840.83,2117.79 4838.01,2119.06 4833.72,2120.39"/>
        <lane id=":1241489782_3_1" index="1" disallow="pedestrian bicycle tram rail_urban rail rail_electric rail_fast ship" speed="13.89" length="15.18" shape="4847.19,2112.12 4842.89,2113.42 4840.06,2114.68 4837.24,2115.95 4832.95,2117.28"/>
        <lane id=":1241489782_3_2" index="2" disallow="pedestrian bicycle tram rail_urban rail rail_electric rail_fast ship" speed="13.89" length="15.18" shape="4847.19,2112.12 4842.77,2112.94 4839.68,2113.13 4836.58,2113.33 4832.17,2114.18"/>
    </edge>
    <edge id=":1241489782_6" function="internal">
        <lane id=":1241489782_6_0" index="0" disallow="pedestrian bicycle tram rail_urban rail rail_electric rail_fast ship" speed="6.39" length="9.95" shape="4847.19,2112.12 4843.27,2112.88 4840.45,2113.00 4838.73,2112.46 4838.11,2111.28"/>
    </edge>
    <edge id=":1241489782_7" function="internal">
        <lane id=":1241489782_7_0" index="0" disallow="tram rail_urban rail rail_electric rail_fast ship" speed="11.11" length="12.75" shape="4841.31,2111.14 4841.59,2114.52 4842.09,2117.45 4842.78,2120.35 4843.64,2123.64"/>
    </edge>
    <edge id=":1241489782_8" function="internal">
        <lane id=":1241489782_8_0" index="0" disallow="pedestrian bicycle tram rail_urban rail rail_electric rail_fast ship" speed="7.25" length="2.26" shape="4841.31,2111.14 4840.04,2112.00 4839.35,2112.23"/>
    </edge>
    <edge id=":1241489782_9" function="internal">
        <lane id=":1241489782_9_0" index="0" disallow="pedestrian bicycle tram rail_urban rail rail_electric rail_fast ship" speed="7.25" length="7.44" shape="4839.35,2112.23 4837.12,2112.94 4834.01,2113.74 4832.17,2114.18"/>
    </edge>
    <edge id=":1241489785_0" function="internal">
        <lane id=":1241489785_0_0" index="0" disallow="pedestrian bicycle tram rail_urban rail rail_electric rail_fast ship" speed="15.28" length="0.30" shape="4630.41,2171.30 4630.14,2171.37"/>
        <lane id=":1241489785_0_1" index="1" disallow="pedestrian bicycle tram rail_urban rail rail_electric rail_fast ship" speed="15.28" length="0.30" shape="4629.64,2168.19 4629.35,2168.27"/>
        <lane id=":1241489785_0_2" index="2" disallow="pedestrian bicycle tram rail_urban rail rail_electric rail_fast ship" speed="15.28" length="0.30" shape="4628.86,2165.09 4628.55,2165.17"/>
    </edge>
    <edge id=":1437431229_0" function="internal">
        <lane id=":1437431229_0_0" index="0" disallow="pedestrian bicycle tram rail_urban rail rail_electric rail_fast ship" speed="19.45" length="14.46" shape="3677.27,2232.12 3664.31,2225.62"/>
        <lane id=":1437431229_0_1" index="1" disallow="pedestrian bicycle tram rail_urban rail rail_electric rail_fast ship" speed="19.45" length="14.46" shape="3678.67,2229.24 3665.78,2222.77"/>
    </edge>
    <edge id=":1437431229_2" function="internal">
        <lane id=":1437431229_2_0" index="0" disallow="pedestrian bicycle tram rail_urban rail rail_electric rail_fast ship" speed="8.02" length="14.25" shape="3676.19,2221.76 3673.93,2224.96 3671.19,2226.67 3667.98,2226.89 3664.31,2225.62"/>
        <lane id=":1437431229_2_1" index="1" disallow="pedestrian bicycle tram rail_urban rail rail_electric rail_fast ship" speed="6.53" length="9.09" shape="3673.35,2220.30 3671.90,2222.34 3670.16,2223.43 3668.11,2223.58 3665.78,2222.77"/>
    </edge>
    <edge id=":1437431242_0" function="internal">
        <lane id=":1437431242_0_0" index="0" disallow="tram rail_urban rail rail_electric rail_fast ship" speed="11.11" length="0.26" shape="3835.01,1977.02 3834.82,1977.20"/>
    </edge>
    <edge id=":1437431242_1" function="internal">
        <lane id=":1437431242_1_0" index="0" disallow="tram rail_urban rail rail_electric rail_fast ship" speed="11.11" length="0.31" shape="3832.57,1974.92 3832.80,1974.70"/>
    </edge>
    <edge id=":1437431250_0" function="internal">
        <lane id=":1437431250_0_0" index="0" disallow="tram rail_urban rail rail_electric rail_fast ship" speed="6.50" length="9.05" shape="2914.95,1336.79 2912.61,1335.97 2910.57,1336.10 2908.83,1337.17 2907.41,1339.20"/>
        <lane id=":1437431250_0_1" index="1" disallow="tram rail_urban rail rail_electric rail_fast ship" speed="7.99" length="14.23" shape="2916.42,1333.95 2912.73,1332.66 2909.53,1332.86 2906.80,1334.56 2904.56,1337.75"/>
    </edge>
    <edge id=":1437431250_2" function="internal">
        <lane id=":1437431250_2_0" index="0" disallow="tram rail_urban rail rail_electric rail_fast ship" speed="11.11" length="14.68" shape="2916.42,1333.95 2912.33,1332.39 2909.26,1332.02 2906.19,1331.62 2902.14,1329.98"/>
        <lane id=":1437431250_2_1" index="1" disallow="tram rail_urban rail rail_electric rail_fast ship" speed="11.11" length="14.68" shape="2916.42,1333.95 2903.68,1327.17"/>
    </edge>
    <edge id=":1437431250_4" function="internal">
        <lane id=":1437431250_4_0" index="0" disallow="tram rail_urban rail rail_electric rail_fast ship" speed="27.78" length="14.46" shape="2914.07,1326.40 2907.41,1339.20"/>
        <lane id=":1437431250_4_1" index="1" disallow="tram rail_urban rail rail_electric rail_fast ship" speed="27.78" length="14.46" shape="2911.25,1324.90 2904.56,1337.75"/>
    </edge>
    <edge id=":1437431250_6" function="internal">
        <lane id=":1437431250_6_0" index="0" disallow="tram rail_urban rail rail_electric rail_fast ship" speed="6.49" length="9.04" shape="2911.25,1324.90 2909.79,1326.90 2908.04,1327.95 2906.00,1328.04 2903.68,1327.17"/>
    </edge>
    <edge id=":1437431252_0" function="internal">
        <lane id=":1437431252_0_0" index="0" disallow="tram rail_urban rail rail_electric rail_fast ship" speed="11.11" length="14.18" shape="2972.88,1197.56 2985.35,1204.20"/>
        <lane id=":1437431252_0_1" index="1" disallow="tram rail_urban rail rail_electric rail_fast ship" speed="11.11" length="14.18" shape="2971.33,1200.36 2983.89,1207.05"/>
    </edge>
    <edge id=":1437431252_2" function="internal">
        <lane id=":1437431252_2_0" index="0" disallow="tram rail_urban rail rail_electric rail_fast ship" speed="7.33" length="11.60" shape="2971.33,1200.36 2974.51,1202.51 2976.41,1204.73 2977.04,1207.03 2976.39,1209.40"/>
        <lane id=":1437431252_2_1" index="1" disallow="tram rail_urban rail rail_electric rail_fast ship" speed="6.51" length="8.93" shape="2971.33,1200.36 2973.28,1201.83 2974.30,1203.58 2974.40,1205.60 2973.57,1207.90"/>
    </edge>
    <edge id=":1437480440_0" function="internal">
        <lane id=":1437480440_0_0" index="0" disallow="tram rail_urban rail rail_electric rail_fast ship" speed="11.11" length="0.30" shape="2361.75,2141.24 2361.44,2141.20"/>
        <lane id=":1437480440_0_1" index="1" disallow="tram rail_urban rail rail_electric rail_fast ship" speed="11.11" length="0.30" shape="2362.20,2138.08 2361.92,2138.04"/>
    </edge>
    <edge id=":1687581287_0" function="internal">
        <lane id=":1687581287_0_0" index="0" disallow="tram rail_urban rail rail_electric rail_fast ship" speed="11.11" length="0.27" shape="2593.47,434.98 2593.44,434.80"/>
        <lane id=":1687581287_0_1" index="1" disallow="tram rail_urban rail rail_electric rail_fast ship" speed="11.11" length="0.27" shape="2596.63,434.48 2596.57,434.14"/>
    </edge>
    <edge id=":1764028735_0" function="internal">
        <lane id=":1764028735_0_0" index="0" disallow="pedestrian bicycle tram rail_urban rail rail_electric rail_fast ship" speed="11.11" length="0.30" shape="4103.43,2297.88 4103.14,2297.95"/>
        <lane id=":1764028735_0_1" index="1" disallow="pedestrian bicycle tram rail_urban rail rail_electric rail_fast ship" speed="11.11" length="0.30" shape="4102.66,2294.77 4102.37,2294.84"/>
    </edge>
    <edge id=":1764028796_0" function="internal">
        <lane id=":1764028796_0_0" index="0" disallow="pedestrian bicycle tram rail_urban rail rail_electric rail_fast ship" speed="11.11" length="0.52" shape="4103.31,2272.81 4103.39,2272.83 4103.44,2272.85 4103.49,2272.86 4103.57,2272.87"/>
        <lane id=":1764028796_0_1" index="1" disallow="pedestrian bicycle tram rail_urban rail rail_electric rail_fast ship" speed="11.11" length="0.52" shape="4102.40,2275.88 4102.63,2275.94 4102.78,2275.98 4102.94,2276.01 4103.17,2276.04"/>
    </edge>
    <edge id=":1764060371_0" function="internal">
        <lane id=":1764060371_0_0" index="0" disallow="pedestrian bicycle tram rail_urban rail rail_electric rail_fast ship" speed="11.11" length="0.26" shape="3141.93,2626.51 3141.78,2626.77"/>
        <lane id=":1764060371_0_1" index="1" disallow="pedestrian bicycle tram rail_urban rail rail_electric rail_fast ship" speed="11.11" length="0.26" shape="3139.14,2624.95 3139.03,2625.13"/>
    </edge>
    <edge id=":1764060373_0" function="internal">
        <lane id=":1764060373_0_0" index="0" disallow="pedestrian bicycle tram rail_urban rail rail_electric rail_fast ship" speed="11.11" length="0.10" shape="2185.52,2190.54 2185.47,2190.61"/>
        <lane id=":1764060373_0_1" index="1" disallow="pedestrian bicycle tram rail_urban rail rail_electric rail_fast ship" speed="11.11" length="0.10" shape="2187.88,2192.72 2187.93,2192.65"/>
    </edge>
    <edge id=":1764060376_0" function="internal">
        <lane id=":1764060376_0_0" index="0" disallow="pedestrian bicycle tram rail_urban rail rail_electric rail_fast ship" speed="19.45" length="8.11" shape="2140.87,2240.95 2142.37,2239.15 2143.08,2237.66 2143.77,2236.14 2145.18,2234.25"/>
        <lane id=":1764060376_0_1" index="1" disallow="pedestrian bicycle tram rail_urban rail rail_electric rail_fast ship" speed="19.45" length="8.11" shape="2143.10,2243.25 2144.64,2241.41 2145.38,2239.89 2146.08,2238.35 2147.53,2236.42"/>
    </edge>
    <edge id=":1764091580_0" function="internal">
        <lane id=":1764091580_0_0" index="0" disallow="pedestrian bicycle tram rail_urban rail rail_electric rail_fast ship" speed="11.11" length="0.24" shape="2286.17,2055.59 2286.27,2055.43"/>
        <lane id=":1764091580_0_1" index="1" disallow="pedestrian bicycle tram rail_urban rail rail_electric rail_fast ship" speed="11.11" length="0.24" shape="2288.87,2057.31 2289.03,2057.06"/>
    </edge>
    <edge id=":1764120759_0" function="internal">
        <lane id=":1764120759_0_0" index="0" disallow="tram rail_urban rail rail_electric rail_fast ship" speed="12.50" length="4.81" shape="3012.42,2793.25 3011.70,2794.48 3011.22,2795.34 3010.88,2796.25 3010.54,2797.63"/>
    </edge>
    <edge id=":1764120759_1" function="internal">
        <lane id=":1764120759_1_0" index="0" disallow="tram rail_urban rail rail_electric rail_fast ship" speed="5.54" length="3.95" shape="3012.42,2793.25 3010.66,2795.67 3009.70,2795.65"/>
    </edge>
    <edge id=":1764120759_4" function="internal">
        <lane id=":1764120759_4_0" index="0" disallow="tram rail_urban rail rail_electric rail_fast ship" speed="5.54" length="7.64" shape="3009.70,2795.65 3009.50,2795.64 3008.95,2793.18 3009.00,2788.27"/>
    </edge>
    <edge id=":1764120759_2" function="internal">
        <lane id=":1764120759_2_0" index="0" disallow="tram rail_urban rail rail_electric rail_fast ship" speed="12.50" length="8.86" shape="3007.41,2796.97 3008.01,2794.40 3008.45,2792.65 3008.77,2790.88 3009.00,2788.27"/>
    </edge>
    <edge id=":1764120759_3" function="internal">
        <lane id=":1764120759_3_0" index="0" disallow="tram rail_urban rail rail_electric rail_fast ship" speed="3.65" length="1.44" shape="3007.41,2796.97 3008.44,2795.96"/>
    </edge>
    <edge id=":1764120759_5" function="internal">
        <lane id=":1764120759_5_0" index="0" disallow="tram rail_urban rail rail_electric rail_fast ship" speed="3.65" length="3.23" shape="3008.44,2795.96 3009.31,2795.73 3010.01,2796.29 3010.54,2797.63"/>
    </edge>
    <edge id=":1764120763_0" function="internal">
        <lane id=":1764120763_0_0" index="0" disallow="pedestrian bicycle tram rail_urban rail rail_electric rail_fast ship" speed="16.67" length="0.31" shape="2953.19,2751.27 2953.22,2751.24 2953.24,2751.22 2953.26,2751.19 2953.29,2751.16"/>
        <lane id=":1764120763_0_1" index="1" disallow="pedestrian bicycle tram rail_urban rail rail_electric rail_fast ship" speed="16.67" length="0.31" shape="2955.48,2753.51 2955.57,2753.41 2955.64,2753.34 2955.70,2753.27 2955.79,2753.16"/>
    </edge>
    <edge id=":1764120770_0" function="internal">
        <lane id=":1764120770_0_0" index="0" disallow="tram rail_urban rail rail_electric rail_fast ship" speed="11.11" length="0.30" shape="3003.49,2741.55 3003.45,2741.25"/>
    </edge>
    <edge id=":1782861666_0" function="internal">
        <lane id=":1782861666_0_0" index="0" disallow="tram rail_urban rail rail_electric rail_fast ship" speed="3.65" length="4.67" shape="3015.86,3334.77 3015.25,3336.08 3014.52,3336.59 3013.67,3336.32 3012.70,3335.25"/>
    </edge>
    <edge id=":1783244006_0" function="internal">
        <lane id=":1783244006_0_0" index="0" disallow="pedestrian bicycle tram rail_urban rail rail_electric rail_fast ship" speed="27.78" length="0.30" shape="1119.38,2750.23 1119.65,2750.12"/>
        <lane id=":1783244006_0_1" index="1" disallow="pedestrian bicycle tram rail_urban rail rail_electric rail_fast ship" speed="27.78" length="0.30" shape="1120.58,2753.20 1120.86,2753.08"/>
        <lane id=":1783244006_0_2" index="2" disallow="pedestrian bicycle tram rail_urban rail rail_electric rail_fast ship" speed="27.78" length="0.30" shape="1121.78,2756.16 1122.07,2756.05"/>
    </edge>
    <edge id=":20928100_0" function="internal">
        <lane id=":20928100_0_0" index="0" disallow="pedestrian bicycle tram rail_urban rail rail_electric rail_fast ship" speed="6.46" length="9.03" shape="2710.41,1724.53 2708.08,1723.66 2706.05,1723.76 2704.32,1724.82 2702.88,1726.84"/>
        <lane id=":20928100_0_1" index="1" disallow="pedestrian bicycle tram rail_urban rail rail_electric rail_fast ship" speed="7.96" length="14.28" shape="2711.94,1721.71 2708.26,1720.35 2705.05,1720.50 2702.31,1722.18 2700.03,1725.38"/>
    </edge>
    <edge id=":20928100_2" function="internal">
        <lane id=":20928100_2_0" index="0" disallow="pedestrian bicycle tram rail_urban rail rail_electric rail_fast ship" speed="27.78" length="17.90" shape="2711.94,1721.71 2707.06,1719.63 2703.41,1718.93 2699.74,1718.27 2694.79,1716.31"/>
        <lane id=":20928100_2_1" index="1" disallow="pedestrian bicycle tram rail_urban rail rail_electric rail_fast ship" speed="27.78" length="17.90" shape="2711.94,1721.71 2696.24,1713.46"/>
    </edge>
    <edge id=":20928100_4" function="internal">
        <lane id=":20928100_4_0" index="0" disallow="pedestrian bicycle tram rail_urban rail rail_electric rail_fast ship" speed="27.78" length="14.68" shape="2708.30,1713.34 2705.98,1717.00 2704.09,1719.32 2702.23,1721.66 2700.03,1725.38"/>
        <lane id=":20928100_4_1" index="1" disallow="pedestrian bicycle tram rail_urban rail rail_electric rail_fast ship" speed="27.78" length="14.68" shape="2705.50,1711.78 2703.17,1715.47 2701.27,1717.81 2699.40,1720.16 2697.19,1723.91"/>
    </edge>
    <edge id=":20928100_6" function="internal">
        <lane id=":20928100_6_0" index="0" disallow="pedestrian bicycle tram rail_urban rail rail_electric rail_fast ship" speed="7.09" length="4.42" shape="2705.50,1711.78 2703.88,1713.75 2702.17,1714.52"/>
    </edge>
    <edge id=":20928100_7" function="internal">
        <lane id=":20928100_7_0" index="0" disallow="pedestrian bicycle tram rail_urban rail rail_electric rail_fast ship" speed="7.09" length="6.18" shape="2702.17,1714.52 2701.80,1714.69 2699.25,1714.59 2696.24,1713.46"/>
    </edge>
    <edge id=":20928101_0" function="internal">
        <lane id=":20928101_0_0" index="0" disallow="pedestrian bicycle tram rail_urban rail rail_electric rail_fast ship" speed="27.78" length="14.46" shape="3343.23,2059.60 3330.42,2052.89"/>
        <lane id=":20928101_0_1" index="1" disallow="pedestrian bicycle tram rail_urban rail rail_electric rail_fast ship" speed="27.78" length="14.46" shape="3344.72,2056.76 3331.90,2050.06"/>
    </edge>
    <edge id=":20928101_2" function="internal">
        <lane id=":20928101_2_0" index="0" disallow="pedestrian bicycle tram rail_urban rail rail_electric rail_fast ship" speed="6.53" length="9.06" shape="3344.72,2056.76 3342.71,2055.32 3341.65,2053.57 3341.52,2051.52 3342.34,2049.17"/>
    </edge>
    <edge id=":20928101_3" function="internal">
        <lane id=":20928101_3_0" index="0" disallow="pedestrian bicycle tram rail_urban rail rail_electric rail_fast ship" speed="6.45" length="9.03" shape="3332.68,2060.44 3333.56,2058.12 3333.48,2056.09 3332.43,2054.34 3330.42,2052.89"/>
    </edge>
    <edge id=":20928101_4" function="internal">
        <lane id=":20928101_4_0" index="0" disallow="pedestrian bicycle tram rail_urban rail rail_electric rail_fast ship" speed="27.78" length="14.50" shape="3332.68,2060.44 3339.50,2047.70"/>
        <lane id=":20928101_4_1" index="1" disallow="pedestrian bicycle tram rail_urban rail rail_electric rail_fast ship" speed="27.78" length="14.50" shape="3335.47,2061.99 3342.34,2049.17"/>
    </edge>
    <edge id=":20928102_0" function="internal">
        <lane id=":20928102_0_0" index="0" disallow="pedestrian bicycle tram rail_urban rail rail_electric rail_fast ship" speed="13.89" length="8.20" shape="4143.99,2286.26 4141.72,2287.02 4140.30,2287.92 4138.87,2288.83 4136.62,2289.64"/>
        <lane id=":20928102_0_1" index="1" disallow="pedestrian bicycle tram rail_urban rail rail_electric rail_fast ship" speed="13.89" length="8.20" shape="4143.29,2283.14 4141.00,2283.91 4139.56,2284.80 4138.12,2285.72 4135.85,2286.54"/>
    </edge>
    <edge id=":20944199_0" function="internal">
        <lane id=":20944199_0_0" index="0" disallow="pedestrian bicycle tram rail_urban rail rail_electric rail_fast ship" speed="6.59" length="9.09" shape="3424.57,2102.12 3422.23,2101.31 3420.17,2101.43 3418.39,2102.48 3416.90,2104.47"/>
    </edge>
    <edge id=":20944199_1" function="internal">
        <lane id=":20944199_1_0" index="0" disallow="pedestrian bicycle tram rail_urban rail rail_electric rail_fast ship" speed="27.78" length="14.29" shape="3424.57,2102.12 3411.88,2095.53"/>
        <lane id=":20944199_1_1" index="1" disallow="pedestrian bicycle tram rail_urban rail rail_electric rail_fast ship" speed="27.78" length="14.29" shape="3426.03,2099.27 3413.36,2092.69"/>
    </edge>
    <edge id=":20944199_3" function="internal">
        <lane id=":20944199_3_0" index="0" disallow="pedestrian bicycle tram rail_urban rail rail_electric rail_fast ship" speed="11.11" length="14.29" shape="3423.73,2091.89 3416.90,2104.47"/>
        <lane id=":20944199_3_1" index="1" disallow="pedestrian bicycle tram rail_urban rail rail_electric rail_fast ship" speed="11.11" length="14.29" shape="3420.90,2090.38 3414.10,2102.92"/>
    </edge>
    <edge id=":20944199_5" function="internal">
        <lane id=":20944199_5_0" index="0" disallow="pedestrian bicycle tram rail_urban rail rail_electric rail_fast ship" speed="6.51" length="8.98" shape="3420.90,2090.38 3419.45,2092.36 3417.71,2093.41 3415.68,2093.52 3413.36,2092.69"/>
    </edge>
    <edge id=":20944201_0" function="internal">
        <lane id=":20944201_0_0" index="0" disallow="pedestrian bicycle tram rail_urban rail rail_electric rail_fast ship" speed="11.11" length="10.53" shape="3047.13,2747.99 3044.84,2750.15 3043.02,2751.42 3041.27,2752.68 3039.18,2754.84"/>
    </edge>
    <edge id=":20944201_1" function="internal">
        <lane id=":20944201_1_0" index="0" disallow="pedestrian bicycle tram rail_urban rail rail_electric rail_fast ship" speed="10.65" length="10.44" shape="3047.13,2747.99 3045.63,2749.14 3043.49,2750.01 3040.73,2750.59 3037.33,2750.89"/>
        <lane id=":20944201_1_1" index="1" disallow="pedestrian bicycle tram rail_urban rail rail_electric rail_fast ship" speed="9.23" length="7.73" shape="3044.77,2745.83 3043.76,2746.55 3042.19,2747.10 3040.07,2747.47 3037.41,2747.68"/>
    </edge>
    <edge id=":20944205_0" function="internal">
        <lane id=":20944205_0_0" index="0" disallow="pedestrian bicycle tram rail_urban rail rail_electric rail_fast ship" speed="6.43" length="9.03" shape="3493.60,1960.42 3492.82,1962.78 3492.99,1964.80 3494.12,1966.48 3496.21,1967.83"/>
    </edge>
    <edge id=":20944205_1" function="internal">
        <lane id=":20944205_1_0" index="0" disallow="pedestrian bicycle tram rail_urban rail rail_electric rail_fast ship" speed="11.11" length="14.62" shape="3493.60,1960.42 3486.87,1973.44"/>
        <lane id=":20944205_1_1" index="1" disallow="pedestrian bicycle tram rail_urban rail rail_electric rail_fast ship" speed="11.11" length="14.62" shape="3490.74,1958.98 3484.05,1971.94"/>
    </edge>
    <edge id=":20944205_3" function="internal">
        <lane id=":20944205_3_0" index="0" disallow="pedestrian bicycle tram rail_urban rail rail_electric rail_fast ship" speed="27.78" length="14.62" shape="3483.04,1961.59 3496.21,1967.83"/>
        <lane id=":20944205_3_1" index="1" disallow="pedestrian bicycle tram rail_urban rail rail_electric rail_fast ship" speed="27.78" length="14.62" shape="3481.63,1964.46 3494.88,1970.74"/>
    </edge>
    <edge id=":20944205_5" function="internal">
        <lane id=":20944205_5_0" index="0" disallow="pedestrian bicycle tram rail_urban rail rail_electric rail_fast ship" speed="6.43" length="9.03" shape="3481.63,1964.46 3483.69,1965.86 3484.77,1967.57 3484.90,1969.60 3484.05,1971.94"/>
    </edge>
    <edge id=":2408834199_0" function="internal">
        <lane id=":2408834199_0_0" index="0" disallow="tram rail_urban rail rail_electric rail_fast ship" speed="3.65" length="4.67" shape="4775.55,3364.89 4774.12,3364.71 4773.41,3364.17 4773.41,3363.28 4774.13,3362.03"/>
    </edge>
    <edge id=":2558091385_0" function="internal">
        <lane id=":2558091385_0_0" index="0" disallow="pedestrian bicycle tram rail_urban rail rail_electric rail_fast ship" speed="11.11" length="0.91" shape="2506.39,1805.70 2506.49,1805.62 2506.57,1805.56 2506.63,1805.49 2506.71,1805.38"/>
        <lane id=":2558091385_0_1" index="1" disallow="pedestrian bicycle tram rail_urban rail rail_electric rail_fast ship" speed="11.11" length="0.91" shape="2508.25,1808.30 2508.58,1808.06 2508.79,1807.88 2508.98,1807.67 2509.23,1807.36"/>
    </edge>
    <edge id=":2558091386_0" function="internal">
        <lane id=":2558091386_0_0" index="0" disallow="pedestrian bicycle tram rail_urban rail rail_electric rail_fast ship" speed="11.11" length="0.10" shape="2566.36,1693.12 2566.41,1693.03"/>
        <lane id=":2558091386_0_1" index="1" disallow="pedestrian bicycle tram rail_urban rail rail_electric rail_fast ship" speed="11.11" length="0.10" shape="2569.24,1694.52 2569.19,1694.61"/>
    </edge>
    <edge id=":2669622254_0" function="internal">
        <lane id=":2669622254_0_0" index="0" disallow="pedestrian bicycle tram rail_urban rail rail_electric rail_fast ship" speed="27.78" length="0.34" shape="2552.04,2005.40 2551.93,2005.61"/>
        <lane id=":2669622254_0_1" index="1" disallow="pedestrian bicycle tram rail_urban rail rail_electric rail_fast ship" speed="27.78" length="0.34" shape="2549.25,2003.83 2549.09,2004.13"/>
        <lane id=":2669622254_0_2" index="2" disallow="pedestrian bicycle tram rail_urban rail rail_electric rail_fast ship" speed="27.78" length="0.34" shape="2546.47,2002.26 2546.25,2002.65"/>
    </edge>
    <edge id=":2669622262_0" function="internal">
        <lane id=":2669622262_0_0" index="0" disallow="pedestrian bicycle tram rail_urban rail rail_electric rail_fast ship" speed="27.78" length="0.29" shape="2784.22,1764.67 2783.95,1764.53"/>
        <lane id=":2669622262_0_1" index="1" disallow="pedestrian bicycle tram rail_urban rail rail_electric rail_fast ship" speed="27.78" length="0.29" shape="2785.71,1761.84 2785.48,1761.72"/>
    </edge>
    <edge id=":2669622270_0" function="internal">
        <lane id=":2669622270_0_0" index="0" disallow="pedestrian bicycle tram rail_urban rail rail_electric rail_fast ship" speed="6.51" length="8.99" shape="2779.43,1585.27 2778.59,1587.59 2778.70,1589.62 2779.74,1591.36 2781.72,1592.83"/>
    </edge>
    <edge id=":2669622270_1" function="internal">
        <lane id=":2669622270_1_0" index="0" disallow="pedestrian bicycle tram rail_urban rail rail_electric rail_fast ship" speed="27.78" length="14.47" shape="2779.43,1585.27 2772.50,1598.01"/>
        <lane id=":2669622270_1_1" index="1" disallow="pedestrian bicycle tram rail_urban rail rail_electric rail_fast ship" speed="27.78" length="14.47" shape="2776.60,1583.77 2769.70,1596.46"/>
    </edge>
    <edge id=":2669622270_3" function="internal">
        <lane id=":2669622270_3_0" index="0" disallow="pedestrian bicycle tram rail_urban rail rail_electric rail_fast ship" speed="11.11" length="14.47" shape="2768.83,1586.13 2781.72,1592.83"/>
        <lane id=":2669622270_3_1" index="1" disallow="pedestrian bicycle tram rail_urban rail rail_electric rail_fast ship" speed="11.11" length="14.47" shape="2767.40,1588.99 2780.20,1595.64"/>
    </edge>
    <edge id=":2669622270_5" function="internal">
        <lane id=":2669622270_5_0" index="0" disallow="pedestrian bicycle tram rail_urban rail rail_electric rail_fast ship" speed="6.40" length="9.00" shape="2767.40,1588.99 2769.44,1590.41 2770.50,1592.12 2770.59,1594.14 2769.70,1596.46"/>
    </edge>
    <edge id=":2833519019_0" function="internal">
        <lane id=":2833519019_0_0" index="0" disallow="tram rail_urban rail rail_electric rail_fast ship" speed="3.65" length="4.67" shape="4969.11,726.94 4969.87,725.71 4970.65,725.28 4971.46,725.65 4972.31,726.82"/>
    </edge>
    <edge id=":322784934_0" function="internal">